units(length='cm', time='s', quantity='mol', act_energy='kcal/mol')

ideal_gas(name='gas',
          elements="H D T C Ci O Oi N Ne Ar He Si S F Cl Br I X",
          species="""OH             bQOOH[O]       acetone
                     H2O            balkoxyketone  ibutenol
                     trisub_epoxy   bQOOHg         CH2O
                     galkene        O2             bR
                     bQOOHa         bRO2           disub_epoxy
                     HO2""",
          reactions='all',
          initial_state=state(temperature=300.0, pressure=OneAtm))

#-------------------------------------------------------------------------------
# Element data
#-------------------------------------------------------------------------------

element(symbol='Ci', atomic_mass=13.003)
element(symbol='D', atomic_mass=2.014)
element(symbol='Oi', atomic_mass=18.0)
element(symbol='T', atomic_mass=3.016)
element(symbol='X', atomic_mass=195.083)
#-------------------------------------------------------------------------------
# Species data
#-------------------------------------------------------------------------------

species(name='OH',
        atoms='H:1 O:1',
        thermo=(NASA([10.00, 984.14],
                     [ 3.49686242E+00,  1.83973160E-04, -9.97634499E-07,
                       1.56942783E-09, -6.10128175E-13,  3.41673934E+03,
                       1.48093120E+00]),
                NASA([984.14, 3000.00],
                     [ 3.45221464E+00, -2.95124034E-04,  7.39418622E-07,
                      -2.89309866E-10,  3.53041498E-14,  3.45751599E+03,
                       1.85813897E+00])))

species(name='bQOOH[O]',
        atoms='C:4 H:9 O:3',
        thermo=(NASA([10.00, 338.69],
                     [ 3.60915854E+00,  3.39069566E-02,  2.22227265E-04,
                      -8.23527342E-07,  8.56246333E-10, -2.02816997E+04,
                       1.23284605E+01]),
                NASA([338.69, 3000.00],
                     [ 5.03198881E+00,  5.46235886E-02, -3.56935806E-05,
                       1.12371751E-08, -1.35390171E-12, -2.05932824E+04,
                       3.82760723E+00])))

species(name='acetone',
        atoms='C:3 H:6 O:1',
        thermo=(NASA([10.00, 414.35],
                     [ 3.73496166E+00,  3.05743218E-02, -1.26253585E-04,
                       3.66080978E-07, -3.31430437E-10, -2.72690006E+04,
                       8.24936012E+00]),
                NASA([414.35, 3000.00],
                     [ 1.70010292E-01,  3.28431468E-02, -1.80960132E-05,
                       4.82960690E-09, -5.02388538E-13, -2.66976175E+04,
                       2.56372653E+01])))

species(name='H2O',
        atoms='H:2 O:1',
        thermo=(NASA([10.00, 773.84],
                     [ 4.00473541E+00, -2.39729134E-04,  8.11862955E-07,
                       1.47891862E-09, -1.19783539E-12, -3.03533807E+04,
                      -9.96254147E-02]),
                NASA([773.84, 3000.00],
                     [ 3.52133374E+00,  1.05377009E-03,  6.40722099E-07,
                      -3.86240235E-10,  5.49243294E-14, -3.02424794E+04,
                       2.34173094E+00])))

species(name='balkoxyketone',
        atoms='C:4 H:7 O:2',
        thermo=(NASA([10.00, 269.93],
                     [ 3.81931151E+00,  1.68519318E-02,  2.42742224E-04,
                      -9.64821161E-07,  1.18509335E-09, -1.95438616E+04,
                       1.20521854E+01]),
                NASA([269.93, 3000.00],
                     [ 3.57555944E+00,  4.28868089E-02, -2.65390705E-05,
                       7.99659117E-09, -9.32983470E-13, -1.96123897E+04,
                       1.13957990E+01])))

species(name='ibutenol',
        atoms='C:4 H:8 O:1',
        thermo=(NASA([10.00, 135.97],
                     [ 3.95714996E+00,  5.72646980E-03,  4.63611760E-04,
                      -3.04137514E-06,  6.85019471E-09, -2.30752071E+04,
                       8.21931848E+00]),
                NASA([135.97, 3000.00],
                     [ 3.32467612E+00,  3.69033556E-02, -1.89960416E-05,
                       4.73417677E-09, -4.59705291E-13, -2.30696284E+04,
                       9.58133237E+00])))

species(name='trisub_epoxy',
        atoms='C:4 H:8 O:2',
        thermo=(NASA([10.00, 209.19],
                     [ 3.75295042E+00,  2.37546930E-02,  1.26610110E-04,
                      -4.78364365E-07,  5.79468168E-10, -4.02228518E+04,
                       1.12739684E+01]),
                NASA([209.19, 3000.00],
                     [ 2.64185254E+00,  4.50006531E-02, -2.57361066E-05,
                       7.15266054E-09, -7.72980731E-13, -4.01763662E+04,
                       1.48960343E+01])))

species(name='bQOOHg',
        atoms='C:4 H:9 O:3',
        thermo=(NASA([10.00, 441.09],
                     [ 3.56595280E+00,  3.36073467E-02,  2.03462772E-04,
                      -5.98977617E-07,  4.83271168E-10, -2.29306424E+04,
                       1.33537891E+01]),
                NASA([441.09, 3000.00],
                     [ 6.09031192E+00,  5.80517622E-02, -4.06392697E-05,
                       1.32574026E-08, -1.62501077E-12, -2.36138278E+04,
                      -1.97849715E+00])))

species(name='CH2O',
        atoms='C:1 H:2 O:1',
        thermo=(NASA([10.00, 601.31],
                     [ 4.03190845E+00, -1.93233367E-03,  8.89743345E-06,
                       2.98105926E-09, -7.90813886E-12, -1.42276270E+04,
                       3.47574660E+00]),
                NASA([601.31, 3000.00],
                     [ 1.40134195E+00,  9.48858016E-03, -4.43088317E-06,
                       9.48452194E-10, -7.43790219E-14, -1.38013869E+04,
                       1.57423780E+01])))

species(name='galkene',
        atoms='C:4 H:8 O:1',
        thermo=(NASA([10.00, 383.47],
                     [ 3.84035604E+00,  1.20378740E-02,  1.87486319E-04,
                      -5.44759148E-07,  4.80711015E-10, -2.07660087E+04,
                       1.02570291E+01]),
                NASA([383.47, 3000.00],
                     [ 4.00413385E+00,  3.79025144E-02, -2.15435710E-05,
                       6.15213311E-09, -6.97446345E-13, -2.09812980E+04,
                       6.98052628E+00])))

species(name='O2',
        atoms='O:2',
        thermo=(NASA([10.00, 605.96],
                     [ 3.50743498E+00, -4.43860349E-04,  1.45938058E-06,
                       1.61509333E-09, -2.32050052E-12, -9.24756224E+02,
                       4.72183634E+00]),
                NASA([605.96, 3000.00],
                     [ 2.87462882E+00,  2.17840991E-03, -1.18262921E-06,
                       2.86910493E-10, -2.53297146E-14, -8.19517838E+02,
                       7.69331810E+00])))

species(name='bR',
        atoms='C:4 H:9 O:1',
        thermo=(NASA([10.00, 483.43],
                     [ 3.38164846E+00,  5.97142637E-02, -1.58320095E-04,
                       3.04908893E-07, -2.13091806E-10, -1.21159534E+04,
                       1.09226843E+01]),
                NASA([483.43, 3000.00],
                     [ 2.33428824E+00,  4.22094427E-02, -2.28029290E-05,
                       6.04614564E-09, -6.30240159E-13, -1.17088714E+04,
                       1.83772893E+01])))

species(name='bQOOHa',
        atoms='C:4 H:9 O:3',
        thermo=(NASA([10.00, 390.53],
                     [ 3.54969236E+00,  3.76592474E-02,  1.76622653E-04,
                      -5.98063750E-07,  5.45069236E-10, -2.74579965E+04,
                       1.31518761E+01]),
                NASA([390.53, 3000.00],
                     [ 5.33564209E+00,  5.64935715E-02, -3.83214298E-05,
                       1.22990604E-08, -1.49549987E-12, -2.78806065E+04,
                       2.59015836E+00])))

species(name='bRO2',
        atoms='C:4 H:9 O:3',
        thermo=(NASA([10.00, 461.39],
                     [ 3.53964713E+00,  3.88723795E-02,  9.57420148E-05,
                      -2.80380499E-07,  2.09647462E-10, -3.25079272E+04,
                       1.18803618E+01]),
                NASA([461.39, 3000.00],
                     [ 3.47201723E+00,  6.00510247E-02, -4.00567321E-05,
                       1.25663813E-08, -1.49496682E-12, -3.27208740E+04,
                       9.77903975E+00])))

species(name='disub_epoxy',
        atoms='C:4 H:8 O:2',
        thermo=(NASA([10.00, 549.41],
                     [ 3.89863211E+00,  5.97532637E-03,  1.66685676E-04,
                      -3.10743768E-07,  1.78330192E-10, -3.50925171E+04,
                       1.13847308E+01]),
                NASA([549.41, 3000.00],
                     [-6.40277648E-01,  6.05960003E-02, -4.13427220E-05,
                       1.31555461E-08, -1.57685017E-12, -3.49194002E+04,
                       2.76005436E+01])))

species(name='HO2',
        atoms='H:1 O:2',
        thermo=(NASA([10.00, 891.11],
                     [ 4.02887004E+00, -1.75769289E-03,  1.08726004E-05,
                      -1.13812972E-08,  3.90113097E-12,  4.95165001E+02,
                       4.69302008E+00]),
                NASA([891.11, 3000.00],
                     [ 3.06571044E+00,  4.28505005E-03, -2.19325920E-06,
                       5.58882699E-10, -5.61246669E-14,  5.98557610E+02,
                       8.84564156E+00])))

#-------------------------------------------------------------------------------
# Reaction data
#-------------------------------------------------------------------------------

# Reaction 1
chebyshev_reaction('bQOOHg (+ M) <=> bRO2 (+ M)',
                   Tmin=180.0, Tmax=1500.0,
                   Pmin=(0.01, 'atm'), Pmax=(98.692, 'atm'),
                   coeffs=[[ 5.59000e+00,  6.00000e-01, -1.40100e-01, -4.12400e-03,  3.72300e-03,  7.05700e-04, -2.07900e-05, -2.84500e-05],
                           [ 1.39700e+00,  9.92200e-01, -2.07500e-01, -1.57500e-02,  4.91100e-03,  1.88200e-03,  1.24500e-04, -8.87500e-05],
                           [ 2.45500e-01,  5.52900e-01, -6.74100e-02, -2.30600e-02, -1.63000e-03,  2.36300e-03,  5.81100e-04, -1.07700e-04],
                           [-6.55700e-02,  1.97400e-01,  1.90700e-02, -1.48900e-02, -6.92900e-03,  1.19100e-03,  1.04400e-03,  2.56500e-05],
                           [-9.44700e-02,  5.04600e-02,  2.55600e-02, -2.28700e-04, -6.25900e-03, -1.15000e-03,  9.50700e-04,  2.93000e-04],
                           [-6.31700e-02,  3.30400e-02,  2.27100e-03,  6.36700e-03, -1.53200e-03, -2.41000e-03,  2.07400e-04,  4.43700e-04],
                           [-3.73100e-02,  3.78800e-02, -9.32700e-03,  3.86800e-03,  2.04000e-03, -1.70700e-03, -5.36000e-04,  3.02800e-04],
                           [-2.13200e-02,  2.76000e-02, -6.19100e-03, -3.38200e-04,  2.38000e-03, -2.67600e-04, -7.04800e-04,  1.12500e-05],
                           [-1.08300e-02,  1.12100e-02,  7.91600e-05, -2.10000e-03,  1.12300e-03,  5.56400e-04, -4.05400e-04, -1.72700e-04],
                           [-4.05500e-03,  4.46200e-04,  3.18400e-03, -1.88500e-03,  1.05500e-04,  5.99400e-04, -7.04000e-05, -1.72100e-04]])

# Reaction 2
chebyshev_reaction('bQOOHa (+ M) <=> bRO2 (+ M)',
                   Tmin=180.0, Tmax=1500.0,
                   Pmin=(0.01, 'atm'), Pmax=(98.692, 'atm'),
                   coeffs=[[ 2.80800e+00,  5.28400e-01, -1.10300e-01, -2.82100e-03,  1.64000e-03,  2.35000e-04,  8.93200e-05,  2.11500e-05],
                           [ 3.58400e+00,  9.03500e-01, -1.69600e-01, -1.11100e-02,  2.06200e-03,  7.88800e-04,  1.92000e-04,  2.90800e-05],
                           [ 6.54900e-01,  5.55000e-01, -6.25500e-02, -1.87100e-02, -1.16400e-03,  1.21000e-03,  2.84700e-04,  1.18300e-05],
                           [-1.96400e-01,  2.30700e-01,  1.64000e-02, -1.54600e-02, -4.53200e-03,  8.03200e-04,  4.59400e-04,  3.89100e-05],
                           [-1.93900e-01,  5.88000e-02,  3.16200e-02, -2.81500e-03, -5.31400e-03, -4.98400e-04,  5.09700e-04,  1.26400e-04],
                           [-6.26400e-02,  1.57800e-02,  1.08500e-02,  7.02000e-03, -2.81600e-03, -1.63800e-03,  2.37900e-04,  2.08700e-04],
                           [-1.29900e-02,  1.83800e-02, -6.59300e-03,  7.56700e-03,  5.84900e-04, -1.64300e-03, -2.19000e-04,  1.88900e-04],
                           [-1.22300e-02,  1.77700e-02, -8.61900e-03,  2.89700e-03,  2.24400e-03, -7.15600e-04, -4.93600e-04,  5.82900e-05],
                           [-1.25500e-02,  1.02400e-02, -3.80600e-03, -7.93600e-04,  1.86500e-03,  1.88400e-04, -4.14800e-04, -7.91200e-05],
                           [-6.66700e-03,  4.17100e-03, -3.28700e-04, -1.73700e-03,  8.20800e-04,  4.99800e-04, -1.57600e-04, -1.23800e-04]])

# Reaction 3
chebyshev_reaction('bQOOH[O] (+ M) <=> bRO2 (+ M)',
                   Tmin=180.0, Tmax=1500.0,
                   Pmin=(0.01, 'atm'), Pmax=(98.692, 'atm'),
                   coeffs=[[ 9.05500e+00,  1.12300e+00, -2.52700e-01,  7.30200e-03,  9.75200e-03, -1.97400e-03, -1.10400e-03,  3.53300e-04],
                           [-2.43500e-01,  8.74800e-01,  8.47300e-03, -4.83300e-02, -6.77400e-03,  4.88200e-03,  2.63100e-04, -7.70000e-04],
                           [-4.81300e-01,  2.67600e-01,  6.25900e-02,  6.56000e-03, -1.53300e-02, -2.31400e-03,  2.00000e-03,  3.01300e-04],
                           [-2.37800e-01,  1.19800e-01,  4.40700e-03,  2.09500e-02, -1.17100e-03, -4.60900e-03, -4.15400e-04,  6.91500e-04],
                           [-1.09700e-01,  6.65300e-02, -1.94500e-02,  1.07600e-02,  5.71200e-03, -1.43300e-03, -1.42300e-03, -1.47500e-05],
                           [-4.82600e-02,  3.83800e-02, -1.92300e-02,  1.44500e-03,  4.89100e-03,  8.74400e-04, -7.50600e-04, -3.95000e-04],
                           [-2.16100e-02,  2.50500e-02, -1.24100e-02, -2.65400e-03,  2.37600e-03,  1.22000e-03, -1.37100e-05, -2.75300e-04],
                           [-1.08000e-02,  1.62800e-02, -5.47300e-03, -3.26400e-03,  5.80500e-04,  7.52700e-04,  2.43600e-04, -5.73100e-05],
                           [-7.02600e-03,  1.06400e-02, -1.13000e-03, -2.65800e-03, -9.55800e-05,  3.14900e-04,  1.70300e-04,  4.61700e-05],
                           [-3.99700e-03,  5.04700e-03,  1.18800e-03, -1.64000e-03, -3.38000e-04,  1.11500e-04,  7.08800e-05,  4.33300e-05]])

# Reaction 4
chebyshev_reaction('O2 + bR (+ M) <=> bRO2 (+ M)',
                   Tmin=180.0, Tmax=1500.0,
                   Pmin=(0.01, 'atm'), Pmax=(98.692, 'atm'),
                   coeffs=[[ 1.02500e+01,  1.67100e-01, -6.16800e-02,  1.00200e-02, -2.41400e-04,  1.60300e-04, -8.70900e-05, -7.46600e-06],
                           [-2.97200e-01,  2.97600e-01, -1.03400e-01,  1.23000e-02,  1.78900e-03, -2.28600e-04, -5.91800e-05, -3.47400e-05],
                           [-1.30400e-01,  2.22400e-01, -6.54900e-02, -1.05300e-04,  4.38400e-03, -5.36100e-04, -6.80500e-05, -1.54500e-05],
                           [-1.04200e-01,  1.48500e-01, -3.29400e-02, -7.52600e-03,  4.52200e-03, -1.19800e-04, -1.98300e-04,  8.28000e-06],
                           [-7.30800e-02,  9.40400e-02, -1.39300e-02, -8.41300e-03,  2.73300e-03,  5.05400e-04, -2.49500e-04, -9.80900e-06],
                           [-4.81400e-02,  5.72100e-02, -4.59000e-03, -6.30200e-03,  8.61600e-04,  7.70300e-04, -1.46400e-04, -5.16300e-05],
                           [-2.90900e-02,  3.15100e-02,  4.41100e-04, -4.16500e-03, -1.69600e-04,  6.42500e-04,  6.35000e-06, -6.99400e-05],
                           [-1.50800e-02,  1.36100e-02,  3.38800e-03, -2.72000e-03, -5.17700e-04,  3.87500e-04,  9.78700e-05, -5.15400e-05],
                           [-5.90400e-03,  2.64200e-03,  4.47900e-03, -1.62800e-03, -5.92600e-04,  1.89900e-04,  1.12300e-04, -1.89700e-05],
                           [-9.89300e-04, -2.43200e-03,  3.98300e-03, -6.87900e-04, -5.73900e-04,  6.84600e-05,  9.03000e-05,  4.93100e-06]])
#  bRO2(+M) <=> bQOOHg(+M)                             1.000e+00 0.000     0.000
#      TCHEB/ 180.000   1500.000 /
#      PCHEB/ 0.010     98.692   /
#      CHEB/ 10 8/
#      CHEB/ -6.398e+00   6.000e-01    -1.401e-01   -4.124e-03   3.723e-03   /
#      CHEB/ 7.057e-04    -2.079e-05   -2.845e-05   1.196e+01    9.922e-01   /
#      CHEB/ -2.075e-01   -1.575e-02   4.911e-03    1.882e-03    1.245e-04   /
#      CHEB/ -8.875e-05   3.912e-01    5.529e-01    -6.741e-02   -2.306e-02  /
#      CHEB/ -1.630e-03   2.363e-03    5.811e-04    -1.077e-04   -2.844e-02  /
#      CHEB/ 1.974e-01    1.907e-02    -1.489e-02   -6.929e-03   1.191e-03   /
#      CHEB/ 1.044e-03    2.565e-05    -8.872e-02   5.046e-02    2.556e-02   /
#      CHEB/ -2.287e-04   -6.259e-03   -1.150e-03   9.507e-04    2.930e-04   /
#      CHEB/ -6.331e-02   3.304e-02    2.271e-03    6.367e-03    -1.532e-03  /
#      CHEB/ -2.410e-03   2.074e-04    4.437e-04    -3.789e-02   3.788e-02   /
#      CHEB/ -9.327e-03   3.868e-03    2.040e-03    -1.707e-03   -5.360e-04  /
#      CHEB/ 3.028e-04    -2.177e-02   2.760e-02    -6.191e-03   -3.382e-04  /
#      CHEB/ 2.380e-03    -2.676e-04   -7.048e-04   1.125e-05    -1.115e-02  /
#      CHEB/ 1.121e-02    7.916e-05    -2.100e-03   1.123e-03    5.564e-04   /
#      CHEB/ -4.054e-04   -1.727e-04   -4.241e-03   4.462e-04    3.184e-03   /
#      CHEB/ -1.885e-03   1.055e-04    5.994e-04    -7.040e-05   -1.721e-04  /

# Reaction 5
chebyshev_reaction('bQOOHa (+ M) <=> bQOOHg (+ M)',
                   Tmin=180.0, Tmax=1500.0,
                   Pmin=(0.01, 'atm'), Pmax=(98.692, 'atm'),
                   coeffs=[[-6.47600e+00, -5.65300e-01, -3.04900e-01, -5.17200e-03,  5.74400e-03,  2.12200e-04,  1.01600e-04,  5.75000e-05],
                           [ 9.63900e+00,  2.07400e+00, -3.21600e-01, -5.14900e-02,  5.82600e-03,  3.16000e-03,  1.28500e-04, -2.35500e-05],
                           [ 5.20100e-01,  8.02300e-01,  4.29700e-02, -5.73100e-02, -1.32600e-02,  4.56700e-03,  1.27300e-03, -1.87600e-04],
                           [-1.65500e-01,  1.67300e-01,  1.04000e-01, -6.86600e-03, -1.81100e-02, -1.69200e-03,  2.14200e-03,  3.50800e-04],
                           [-3.43200e-02,  5.55400e-02,  2.62000e-02,  2.04700e-02, -4.96400e-03, -6.02500e-03,  4.18000e-04,  8.82000e-04],
                           [ 1.23900e-02,  5.68000e-02, -1.39700e-02,  1.30600e-02,  5.13000e-03, -3.61100e-03, -1.47900e-03,  4.73200e-04],
                           [-6.52500e-03,  3.42100e-02, -9.07300e-03,  4.56900e-04,  5.33300e-03,  1.97700e-04, -1.45300e-03, -2.30700e-04],
                           [-1.75500e-02,  1.24400e-02,  4.43300e-04, -4.13700e-03,  2.36200e-03,  1.44000e-03, -4.91000e-04, -4.12900e-04],
                           [-2.31100e-02,  2.52600e-03,  3.70500e-03, -3.64900e-03,  3.49500e-04,  1.07300e-03,  9.97200e-05, -2.28600e-04],
                           [-1.48500e-02, -2.30700e-03,  3.80200e-03, -1.69900e-03, -6.88500e-04,  5.69700e-04,  2.42300e-04, -7.71700e-05]])

# Reaction 6
chebyshev_reaction('bQOOH[O] (+ M) <=> bQOOHg (+ M)',
                   Tmin=180.0, Tmax=1500.0,
                   Pmin=(0.01, 'atm'), Pmax=(98.692, 'atm'),
                   coeffs=[[ 1.87200e+00,  7.87100e-02, -4.48600e-01,  3.83100e-03,  1.37200e-02, -1.33800e-03, -1.31700e-03,  3.42600e-04],
                           [ 2.86100e+00,  1.77900e+00, -6.25000e-02, -8.01900e-02, -1.04600e-02,  6.28800e-03,  1.69400e-03, -7.55000e-04],
                           [ 2.15500e-01,  5.71500e-01,  7.79600e-02, -1.31900e-02, -1.50700e-02, -1.97800e-03,  1.48100e-03,  6.03800e-04],
                           [-9.89800e-02,  1.69000e-01,  2.81800e-02,  1.24000e-02, -3.22500e-03, -2.47200e-03, -3.98600e-04,  1.70400e-04],
                           [-1.14900e-02,  7.37100e-02, -9.84900e-03,  9.42300e-03,  2.17300e-03, -1.31400e-03, -7.64500e-05, -5.72900e-05],
                           [ 1.99600e-02,  5.97700e-02, -1.51800e-02,  2.96600e-04,  3.39700e-03, -8.82000e-04, -7.32800e-05,  2.82200e-04],
                           [ 3.44100e-03,  3.02700e-02,  3.69900e-04, -5.52600e-03,  1.95100e-03,  1.51900e-04, -5.04600e-04,  2.03100e-04],
                           [-1.51500e-02,  1.46400e-02,  4.28400e-03, -3.74900e-03,  2.66600e-04,  5.58400e-04, -4.16100e-04, -9.73700e-05],
                           [-2.48500e-02,  5.18100e-03,  4.19200e-03, -1.76600e-03, -3.27300e-04,  5.20400e-04, -1.21100e-04, -2.19400e-04],
                           [-1.49500e-02, -2.14500e-03,  3.73200e-03, -4.78900e-04, -5.70200e-04,  3.20600e-04,  1.10200e-04, -1.54200e-04]])

# Reaction 7
chebyshev_reaction('O2 + bR (+ M) <=> bQOOHg (+ M)',
                   Tmin=180.0, Tmax=1500.0,
                   Pmin=(0.01, 'atm'), Pmax=(98.692, 'atm'),
                   coeffs=[[ 5.26500e+00, -6.56000e-01, -3.71100e-01,  6.48700e-03,  1.97500e-02, -2.05200e-03, -2.46100e-03,  8.57600e-04],
                           [ 1.34500e+00,  8.87000e-01, -5.44400e-02, -4.77400e-02, -1.44000e-02,  8.05100e-03,  2.92000e-03, -1.48500e-03],
                           [ 2.26500e-01,  5.21800e-01, -1.14400e-02, -2.68500e-02, -6.78800e-03,  2.12300e-04,  1.71500e-03,  2.23600e-04],
                           [ 3.29800e-02,  1.89300e-01,  1.76900e-02, -3.80300e-03, -3.08100e-03, -4.36700e-03,  6.81300e-04,  1.14800e-03],
                           [ 4.23500e-02,  8.71800e-02,  1.38000e-02, -3.27400e-03,  1.43400e-03, -1.81400e-03, -1.15200e-03,  4.85700e-04],
                           [ 1.96300e-02,  6.86000e-02,  5.02200e-03, -6.81300e-03,  2.43800e-03,  1.22800e-03, -1.45300e-03, -3.63900e-04],
                           [ 1.54500e-02,  9.25900e-03,  7.96600e-03, -1.03900e-05, -1.00100e-03,  5.62800e-04,  8.11700e-05, -3.42400e-04],
                           [-1.49400e-02,  1.04700e-02,  5.36700e-03, -2.07200e-03, -5.19400e-04,  7.68100e-04,  1.48800e-04, -2.60700e-04],
                           [-1.97200e-02, -2.27400e-03,  4.85900e-03, -5.54500e-04, -5.76600e-04,  1.51900e-04,  1.92500e-04,  1.97800e-06],
                           [-1.30700e-02, -4.93600e-03,  4.16400e-03, -1.71400e-04, -7.42900e-04,  1.42500e-04,  1.61800e-04,  3.70800e-07]])
#  bRO2(+M) <=> bQOOHa(+M)                             1.000e+00 0.000     0.000
#      TCHEB/ 180.000   1500.000 /
#      PCHEB/ 0.010     98.692   /
#      CHEB/ 10 8/
#      CHEB/ -3.167e+00   5.284e-01    -1.103e-01   -2.821e-03   1.640e-03   /
#      CHEB/ 2.350e-04    8.932e-05    2.115e-05    9.191e+00    9.035e-01   /
#      CHEB/ -1.696e-01   -1.111e-02   2.062e-03    7.888e-04    1.920e-04   /
#      CHEB/ 2.908e-05    7.099e-01    5.550e-01    -6.255e-02   -1.871e-02  /
#      CHEB/ -1.164e-03   1.210e-03    2.847e-04    1.183e-05    -1.951e-01  /
#      CHEB/ 2.307e-01    1.640e-02    -1.546e-02   -4.532e-03   8.032e-04   /
#      CHEB/ 4.594e-04    3.891e-05    -1.987e-01   5.880e-02    3.162e-02   /
#      CHEB/ -2.815e-03   -5.314e-03   -4.984e-04   5.097e-04    1.264e-04   /
#      CHEB/ -6.541e-02   1.578e-02    1.085e-02    7.020e-03    -2.816e-03  /
#      CHEB/ -1.638e-03   2.379e-04    2.087e-04    -1.434e-02   1.838e-02   /
#      CHEB/ -6.593e-03   7.567e-03    5.849e-04    -1.643e-03   -2.190e-04  /
#      CHEB/ 1.889e-04    -1.295e-02   1.777e-02    -8.619e-03   2.897e-03   /
#      CHEB/ 2.244e-03    -7.156e-04   -4.936e-04   5.829e-05    -1.290e-02  /
#      CHEB/ 1.024e-02    -3.806e-03   -7.936e-04   1.865e-03    1.884e-04   /
#      CHEB/ -4.148e-04   -7.912e-05   -6.786e-03   4.171e-03    -3.287e-04  /
#      CHEB/ -1.737e-03   8.208e-04    4.998e-04    -1.576e-04   -1.238e-04  /
#  bQOOHg(+M) <=> bQOOHa(+M)                           1.000e+00 0.000     0.000
#      TCHEB/ 180.000   1500.000 /
#      PCHEB/ 0.010     98.692   /
#      CHEB/ 10 8/
#      CHEB/ -4.632e-01   -5.653e-01   -3.049e-01   -5.172e-03   5.744e-03   /
#      CHEB/ 2.122e-04    1.016e-04    5.750e-05    4.684e+00    2.074e+00   /
#      CHEB/ -3.216e-01   -5.149e-02   5.826e-03    3.160e-03    1.285e-04   /
#      CHEB/ -2.355e-05   4.293e-01    8.023e-01    4.297e-02    -5.731e-02  /
#      CHEB/ -1.326e-02   4.567e-03    1.273e-03    -1.876e-04   -2.014e-01  /
#      CHEB/ 1.673e-01    1.040e-01    -6.866e-03   -1.811e-02   -1.692e-03  /
#      CHEB/ 2.142e-03    3.508e-04    -4.489e-02   5.554e-02    2.620e-02   /
#      CHEB/ 2.047e-02    -4.964e-03   -6.025e-03   4.180e-04    8.820e-04   /
#      CHEB/ 9.761e-03    5.680e-02    -1.397e-02   1.306e-02    5.130e-03   /
#      CHEB/ -3.611e-03   -1.479e-03   4.732e-04    -7.292e-03   3.421e-02   /
#      CHEB/ -9.073e-03   4.569e-04    5.333e-03    1.977e-04    -1.453e-03  /
#      CHEB/ -2.307e-04   -1.782e-02   1.244e-02    4.433e-04    -4.137e-03  /
#      CHEB/ 2.362e-03    1.440e-03    -4.910e-04   -4.129e-04   -2.314e-02  /
#      CHEB/ 2.526e-03    3.705e-03    -3.649e-03   3.495e-04    1.073e-03   /
#      CHEB/ 9.972e-05    -2.286e-04   -1.478e-02   -2.307e-03   3.802e-03   /
#      CHEB/ -1.699e-03   -6.885e-04   5.697e-04    2.423e-04    -7.717e-05  /

# Reaction 8
chebyshev_reaction('bQOOH[O] (+ M) <=> bQOOHa (+ M)',
                   Tmin=180.0, Tmax=1500.0,
                   Pmin=(0.01, 'atm'), Pmax=(98.692, 'atm'),
                   coeffs=[[ 3.58300e+00, -2.95000e-02, -4.13300e-01,  7.03600e-03,  1.03800e-02, -1.32900e-03, -1.32100e-03,  3.72600e-04],
                           [ 1.97900e+00,  1.76500e+00, -5.58500e-02, -7.35400e-02, -1.03700e-02,  4.38800e-03,  1.75400e-03, -6.82300e-04],
                           [-1.17800e-01,  5.94000e-01,  9.23800e-02, -1.52100e-02, -1.46400e-02, -2.63000e-03,  1.16300e-03,  7.49300e-04],
                           [-2.09900e-01,  1.86400e-01,  3.88000e-02,  1.37500e-02, -3.72300e-03, -2.54800e-03, -9.41600e-04,  1.94900e-04],
                           [-3.85400e-02,  6.35700e-02, -4.98900e-03,  1.45700e-02,  1.72300e-03, -1.24300e-03, -3.85600e-04, -3.06500e-04],
                           [ 2.25400e-02,  3.54500e-02, -1.50200e-02,  5.45700e-03,  3.53500e-03, -8.20400e-04, -4.32500e-05,  2.97300e-05],
                           [ 6.60200e-03,  2.70500e-02, -9.10100e-03, -1.60100e-03,  3.04200e-03, -1.18000e-04, -3.39400e-04,  1.70100e-04],
                           [-1.58700e-02,  1.60000e-02, -1.79300e-03, -3.43000e-03,  1.49200e-03,  4.89900e-04, -3.94200e-04, -1.28100e-05],
                           [-2.31100e-02,  7.82200e-03,  1.58000e-03, -2.87800e-03,  3.61300e-04,  6.79500e-04, -1.88200e-04, -1.59500e-04],
                           [-1.82000e-02,  1.41100e-03,  2.58100e-03, -1.61300e-03, -3.00600e-04,  5.06700e-04,  5.62400e-05, -1.44300e-04]])

# Reaction 9
chebyshev_reaction('O2 + bR (+ M) <=> bQOOHa (+ M)',
                   Tmin=180.0, Tmax=1500.0,
                   Pmin=(0.01, 'atm'), Pmax=(98.692, 'atm'),
                   coeffs=[[ 6.52100e+00, -7.27500e-01, -3.37500e-01,  1.75700e-02,  1.28100e-02, -3.90400e-03, -8.16700e-04,  9.05800e-04],
                           [ 6.41700e-01,  9.95000e-01, -4.68000e-02, -5.86300e-02, -8.00700e-03,  9.04900e-03,  1.05200e-04, -1.39200e-03],
                           [ 1.32000e-02,  4.44800e-01,  1.17400e-02, -8.47100e-03, -1.18600e-02, -2.20200e-03,  2.73700e-03,  2.37200e-04],
                           [-6.69300e-02,  1.95200e-01,  9.31300e-03,  2.49000e-03,  3.24200e-04, -4.84400e-03, -2.57500e-04,  1.03100e-03],
                           [ 1.03800e-02,  9.18200e-02,  2.61000e-03, -8.21400e-04,  4.90600e-03, -1.44000e-03, -1.74100e-03,  2.14600e-04],
                           [ 2.77200e-02,  4.74400e-02,  5.07500e-04, -3.41900e-03,  3.22100e-03,  1.18900e-03, -1.09100e-03, -4.53400e-04],
                           [ 5.53400e-03,  2.46500e-02,  1.56200e-03, -3.72300e-03,  8.28400e-04,  1.57400e-03, -1.14000e-04, -4.57700e-04],
                           [-1.39500e-02,  8.18400e-03,  3.89800e-03, -2.73600e-03, -5.47500e-04,  9.34000e-04,  3.61600e-04, -1.89600e-04],
                           [-1.82900e-02, -1.21500e-03,  4.85600e-03, -1.54100e-03, -9.30100e-04,  3.33400e-04,  3.60800e-04,  1.47100e-05],
                           [-1.46400e-02, -4.43100e-03,  4.07000e-03, -5.15100e-04, -8.37300e-04,  3.52600e-05,  2.00500e-04,  7.72500e-05]])
#  bRO2(+M) <=> bQOOH[O](+M)                           1.000e+00 0.000     0.000
#      TCHEB/ 180.000   1500.000 /
#      PCHEB/ 0.010     98.692   /
#      CHEB/ 10 8/
#      CHEB/ -7.025e+00   1.123e+00    -2.527e-01   7.302e-03    9.752e-03   /
#      CHEB/ -1.974e-03   -1.104e-03   3.533e-04    1.286e+01    8.748e-01   /
#      CHEB/ 8.473e-03    -4.833e-02   -6.774e-03   4.882e-03    2.631e-04   /
#      CHEB/ -7.700e-04   -4.872e-01   2.676e-01    6.259e-02    6.560e-03   /
#      CHEB/ -1.533e-02   -2.314e-03   2.000e-03    3.013e-04    -2.588e-01  /
#      CHEB/ 1.198e-01    4.407e-03    2.095e-02    -1.171e-03   -4.609e-03  /
#      CHEB/ -4.154e-04   6.915e-04    -1.205e-01   6.653e-02    -1.945e-02  /
#      CHEB/ 1.076e-02    5.712e-03    -1.433e-03   -1.423e-03   -1.475e-05  /
#      CHEB/ -5.221e-02   3.838e-02    -1.923e-02   1.445e-03    4.891e-03   /
#      CHEB/ 8.744e-04    -7.506e-04   -3.950e-04   -2.312e-02   2.505e-02   /
#      CHEB/ -1.241e-02   -2.654e-03   2.376e-03    1.220e-03    -1.371e-05  /
#      CHEB/ -2.753e-04   -1.143e-02   1.628e-02    -5.473e-03   -3.264e-03  /
#      CHEB/ 5.805e-04    7.527e-04    2.436e-04    -5.731e-05   -7.204e-03  /
#      CHEB/ 1.064e-02    -1.130e-03   -2.658e-03   -9.558e-05   3.149e-04   /
#      CHEB/ 1.703e-04    4.617e-05    -3.991e-03   5.047e-03    1.188e-03   /
#      CHEB/ -1.640e-03   -3.380e-04   1.115e-04    7.088e-05    4.333e-05   /
#  bQOOHg(+M) <=> bQOOH[O](+M)                         1.000e+00 0.000     0.000
#      TCHEB/ 180.000   1500.000 /
#      PCHEB/ 0.010     98.692   /
#      CHEB/ 10 8/
#      CHEB/ -2.221e+00   7.871e-02    -4.486e-01   3.831e-03    1.372e-02   /
#      CHEB/ -1.338e-03   -1.317e-03   3.426e-04    5.402e+00    1.779e+00   /
#      CHEB/ -6.250e-02   -8.019e-02   -1.046e-02   6.288e-03    1.694e-03   /
#      CHEB/ -7.550e-04   6.388e-02    5.715e-01    7.796e-02    -1.319e-02  /
#      CHEB/ -1.507e-02   -1.978e-03   1.481e-03    6.038e-04    -1.572e-01  /