units(length='cm', time='s', quantity='mol', act_energy='kcal/mol')

ideal_gas(name='gas',
          elements="H D T C Ci O Oi N Ne Ar He Si S F Cl Br I X",
          species="""aOOHbalkene      OH               ibutanal
                     aR               performic_acid   disub_c4ether
                     aQOOHb           H                aadduct
                     trisub_epoxy     ibutenol         aQOOH[O]
                     ipropyl          aRO2             O2
                     formic_acid      propene          aQOOHg
                     ibut_peroxyacid  HO2              CH3""",
          reactions='all',
          initial_state=state(temperature=300.0, pressure=OneAtm))

#-------------------------------------------------------------------------------
# Element data
#-------------------------------------------------------------------------------

element(symbol='Ci', atomic_mass=13.003)
element(symbol='D', atomic_mass=2.014)
element(symbol='Oi', atomic_mass=18.0)
element(symbol='T', atomic_mass=3.016)
element(symbol='X', atomic_mass=195.083)
#-------------------------------------------------------------------------------
# Species data
#-------------------------------------------------------------------------------

species(name='aOOHbalkene',
        atoms='C:3 H:6 O:3',
        thermo=(NASA([10.00, 497.41],
                     [ 3.76691735E+00,  1.51417956E-02,  1.85499431E-04,
                      -4.61303214E-07,  3.27678941E-10, -3.11998542E+04,
                       1.09903968E+01]),
                NASA([497.41, 3000.00],
                     [ 6.20882781E+00,  4.08866173E-02, -2.89934946E-05,
                       9.60428979E-09, -1.19355432E-12, -3.20041836E+04,
                      -4.72842811E+00])))

species(name='OH',
        atoms='H:1 O:1',
        thermo=(NASA([10.00, 984.14],
                     [ 3.49686242E+00,  1.83973160E-04, -9.97634499E-07,
                       1.56942783E-09, -6.10128175E-13,  3.41673934E+03,
                       1.48093120E+00]),
                NASA([984.14, 3000.00],
                     [ 3.45221464E+00, -2.95124034E-04,  7.39418622E-07,
                      -2.89309866E-10,  3.53041498E-14,  3.45751599E+03,
                       1.85813897E+00])))

species(name='ibutanal',
        atoms='C:4 H:8 O:1',
        thermo=(NASA([10.00, 683.88],
                     [ 3.57157346E+00,  3.36936906E-02, -1.78475021E-05,
                       1.31946716E-08, -7.58008388E-12, -2.71162299E+04,
                       1.05595084E+01]),
                NASA([683.88, 3000.00],
                     [ 1.29043622E+00,  4.14804229E-02, -2.27411206E-05,
                       6.08619500E-09, -6.38995128E-13, -2.66743107E+04,
                       2.16477430E+01])))

species(name='aR',
        atoms='C:4 H:9 O:1',
        thermo=(NASA([10.00, 455.22],
                     [ 3.59625500E+00,  3.38947981E-02,  7.37257079E-06,
                      -3.99275335E-08,  2.49019944E-11, -1.39101747E+04,
                       1.18269265E+01]),
                NASA([455.22, 3000.00],
                     [ 2.49586309E+00,  4.35639890E-02, -2.44887770E-05,
                       6.73363769E-09, -7.23862433E-13, -1.38099915E+04,
                       1.62696907E+01])))

species(name='performic_acid',
        atoms='C:1 H:2 O:3',
        thermo=(NASA([10.00, 590.95],
                     [ 3.92633851E+00,  4.24517168E-03,  6.71106764E-05,
                      -1.36545385E-07,  8.03337864E-11, -3.63028176E+04,
                       8.06485813E+00]),
                NASA([590.95, 3000.00],
                     [ 4.39992934E+00,  1.85411415E-02, -1.36005501E-05,
                       4.62292431E-09, -5.88463603E-13, -3.66643888E+04,
                       3.44353230E+00])))

species(name='disub_c4ether',
        atoms='C:4 H:8 O:2',
        thermo=(NASA([10.00, 413.50],
                     [ 3.78241323E+00,  1.89501763E-02,  8.65302396E-05,
                      -1.80580575E-07,  1.13656264E-10, -4.10863089E+04,
                       1.09982450E+01]),
                NASA([413.50, 3000.00],
                     [ 4.29420885E-01,  5.13851903E-02, -3.11292293E-05,
                       9.11498284E-09, -1.03192718E-12, -4.08090145E+04,
                       2.42134976E+01])))

species(name='aQOOHb',
        atoms='C:4 H:9 O:3',
        thermo=(NASA([10.00, 412.78],
                     [ 3.15498836E+00,  8.55068303E-02, -2.35307993E-04,
                       4.71983261E-07, -3.62709267E-10, -2.93548988E+04,
                       1.52522123E+01]),
                NASA([412.78, 3000.00],
                     [ 4.18099845E+00,  5.26168288E-02, -3.23998410E-05,
                       9.59389339E-09, -1.09464519E-12, -2.92441039E+04,
                       1.35782328E+01])))

species(name='H',
        atoms='H:1',
        thermo=(NASA([10.00, 794.01],
                     [ 2.50000000E+00,  1.99051163E-15, -1.19089508E-17,
                       2.10805655E-20, -1.11017699E-23,  2.54725594E+04,
                      -4.61279342E-01]),
                NASA([794.01, 3000.00],
                     [ 2.50000000E+00,  1.52667235E-14, -1.58445285E-17,
                       6.63088600E-21, -9.62111674E-25,  2.54725594E+04,
                      -4.61279342E-01])))

species(name='aadduct',
        atoms='C:4 H:9 O:3',
        thermo=(NASA([10.00, 449.84],
                     [ 3.06901904E+00,  9.20724491E-02, -2.68085092E-04,
                       5.15249897E-07, -3.68046586E-10, -2.99222943E+04,
                       1.46591735E+01]),
                NASA([449.84, 3000.00],
                     [ 4.11210745E+00,  5.16955724E-02, -2.97401041E-05,
                       8.32758939E-09, -9.08861448E-13, -2.97014533E+04,
                       1.39578825E+01])))

species(name='trisub_epoxy',
        atoms='C:4 H:8 O:2',
        thermo=(NASA([10.00, 209.19],
                     [ 3.75295042E+00,  2.37546930E-02,  1.26610110E-04,
                      -4.78364365E-07,  5.79468168E-10, -4.10542457E+04,
                       1.12739684E+01]),
                NASA([209.19, 3000.00],
                     [ 2.64185254E+00,  4.50006531E-02, -2.57361066E-05,
                       7.15266054E-09, -7.72980731E-13, -4.10077601E+04,
                       1.48960343E+01])))

species(name='ibutenol',
        atoms='C:4 H:8 O:1',
        thermo=(NASA([10.00, 135.97],
                     [ 3.95714996E+00,  5.72646980E-03,  4.63611760E-04,
                      -3.04137514E-06,  6.85019471E-09, -2.25718003E+04,
                       8.21931848E+00]),
                NASA([135.97, 3000.00],
                     [ 3.32467612E+00,  3.69033556E-02, -1.89960416E-05,
                       4.73417677E-09, -4.59705291E-13, -2.25662216E+04,
                       9.58133237E+00])))

species(name='aQOOH[O]',
        atoms='C:4 H:9 O:3',
        thermo=(NASA([10.00, 488.36],
                     [ 3.54559533E+00,  3.89536133E-02,  8.47689703E-05,
                      -2.45147486E-07,  1.76157259E-10, -2.71633698E+04,
                       1.34685910E+01]),
                NASA([488.36, 3000.00],
                     [ 3.94214913E+00,  5.71928314E-02, -3.72516212E-05,
                       1.15209013E-08, -1.35808341E-12, -2.74583308E+04,
                       9.21628964E+00])))

species(name='ipropyl',
        atoms='C:3 H:7',
        thermo=(NASA([10.00, 421.76],
                     [ 3.73943775E+00,  3.10070157E-02, -1.51196908E-04,
                       4.35367329E-07, -3.85565052E-10,  9.49213457E+03,
                       7.79448918E+00]),
                NASA([421.76, 3000.00],
                     [-4.74526725E-01,  3.20862468E-02, -1.67340747E-05,
                       4.21365136E-09, -4.13155573E-13,  1.01934458E+04,
                       2.85865912E+01])))

species(name='aRO2',
        atoms='C:4 H:9 O:3',
        thermo=(NASA([10.00, 670.36],
                     [ 3.45405325E+00,  4.74751311E-02,  9.77507759E-06,
                      -6.31019603E-08,  3.75500067E-11, -3.48468879E+04,
                       1.39284976E+01]),
                NASA([670.36, 3000.00],
                     [ 5.04137652E+00,  5.19952978E-02, -3.16472789E-05,
                       9.22798587E-09, -1.03598915E-12, -3.53740804E+04,
                       4.56056770E+00])))

species(name='O2',
        atoms='O:2',
        thermo=(NASA([10.00, 605.96],
                     [ 3.50743498E+00, -4.43860349E-04,  1.45938058E-06,
                       1.61509333E-09, -2.32050052E-12, -9.24756224E+02,
                       4.72183634E+00]),
                NASA([605.96, 3000.00],
                     [ 2.87462882E+00,  2.17840991E-03, -1.18262921E-06,
                       2.86910493E-10, -2.53297146E-14, -8.19517838E+02,
                       7.69331810E+00])))

species(name='formic_acid',
        atoms='C:1 H:2 O:2',
        thermo=(NASA([10.00, 741.38],
                     [ 4.06855785E+00, -4.74562133E-03,  4.71797900E-05,
                      -6.07490052E-08,  2.51286794E-11, -4.66880837E+04,
                       6.53681035E+00]),
                NASA([741.38, 3000.00],
                     [ 1.13645847E+00,  1.74953124E-02, -1.08112403E-05,
                       3.08075326E-09, -3.34892658E-13, -4.64297918E+04,
                       1.86149484E+01])))

species(name='propene',
        atoms='C:3 H:6',
        thermo=(NASA([10.00, 519.53],
                     [ 3.98723879E+00,  4.72040503E-04,  6.51776229E-05,
                      -9.89891002E-08,  4.91141123E-11,  8.07151615E+02,
                       6.98071210E+00]),
                NASA([519.53, 3000.00],
                     [ 3.79893331E-01,  2.82457690E-02, -1.50108430E-05,
                       3.90894069E-09, -4.00521928E-13,  1.18197896E+03,
                       2.20218922E+01])))

species(name='aQOOHg',
        atoms='C:4 H:9 O:3',
        thermo=(NASA([10.00, 455.48],
                     [ 3.62522127E+00,  2.83222320E-02,  2.08527447E-04,
                      -5.67427418E-07,  4.35169138E-10, -2.49131970E+04,
                       1.26617758E+01]),
                NASA([455.48, 3000.00],
                     [ 5.13914202E+00,  5.96270859E-02, -4.14435328E-05,
                       1.34202375E-08, -1.63474553E-12, -2.55137534E+04,
                       1.46991116E+00])))

species(name='ibut_peroxyacid',
        atoms='C:4 H:8 O:3',
        thermo=(NASA([10.00, 1386.21],
                     [ 3.50995385E+00,  4.78670384E-02, -2.40781384E-05,
                       3.71046938E-09,  3.85442115E-13, -4.88996412E+04,
                       1.22017268E+01]),
                NASA([1386.21, 3000.00],
                     [ 1.24543146E+01,  3.02396862E-02, -1.38577031E-05,
                       3.05328904E-09, -2.63982457E-13, -5.21655245E+04,
                      -3.67061828E+01])))

species(name='HO2',
        atoms='H:1 O:2',
        thermo=(NASA([10.00, 891.11],
                     [ 4.02887004E+00, -1.75769289E-03,  1.08726004E-05,
                      -1.13812972E-08,  3.90113097E-12,  4.95165001E+02,
                       4.69302008E+00]),
                NASA([891.11, 3000.00],
                     [ 3.06571044E+00,  4.28505005E-03, -2.19325920E-06,
                       5.58882699E-10, -5.61246669E-14,  5.98557610E+02,
                       8.84564156E+00])))

species(name='CH3',
        atoms='C:1 H:3',
        thermo=(NASA([10.00, 616.77],
                     [ 3.98929952E+00,  5.45150461E-04,  9.01320092E-06,
                      -1.08320497E-08,  4.38985879E-12,  1.65859883E+04,
                       2.22446886E-01]),
                NASA([616.77, 3000.00],
                     [ 3.35928237E+00,  4.63117126E-03, -9.24365433E-07,
                      -9.02514624E-11,  3.56905106E-14,  1.66637014E+04,
                       2.95743732E+00])))

#-------------------------------------------------------------------------------
# Reaction data
#-------------------------------------------------------------------------------

# Reaction 1
chebyshev_reaction('aQOOH[O] (+ M) <=> aQOOHb (+ M)',
                   Tmin=180.0, Tmax=1500.0,
                   Pmin=(0.01, 'atm'), Pmax=(98.692, 'atm'),
                   coeffs=[[-5.03000e+00,  1.18400e+00, -7.79200e-02, -5.77500e-03, -5.88500e-03,  3.88900e-03,  6.65300e-04, -3.42100e-04],
                           [ 3.89100e-01,  2.29100e+00,  2.22400e-01, -5.15700e-02, -8.06100e-03, -1.52400e-04, -5.20100e-05, -5.14400e-05],
                           [-2.59100e+00,  3.97200e-01,  1.09400e-01,  2.15900e-02,  1.08400e-03,  2.89400e-04,  1.52800e-04,  4.80200e-05],
                           [-1.53800e+00, -1.74000e-01,  8.58700e-03,  3.22000e-02, -1.06900e-03, -4.15400e-03, -1.11000e-04,  4.89900e-04],
                           [-8.29400e-01, -2.08000e-01, -5.56400e-03,  3.54800e-02,  4.56500e-03, -2.92000e-03, -6.87500e-04,  1.19700e-05],
                           [-4.25800e-01, -1.47100e-01, -1.43000e-02,  1.70600e-02,  4.14700e-03,  6.96500e-04,  2.24700e-04, -2.41900e-04],
                           [-2.05300e-01, -9.12400e-02, -1.28600e-02,  8.57700e-04, -8.77900e-04,  1.22000e-03,  7.61600e-04, -1.22300e-04],
                           [-9.01600e-02, -4.64600e-02, -5.65800e-03,  9.02400e-05, -1.98400e-03, -1.80200e-04,  3.81100e-04,  8.49200e-05],
                           [-3.53700e-02, -4.21500e-02, -8.40700e-03,  2.17100e-03, -3.18900e-05, -8.05000e-04, -2.72000e-04,  1.49400e-04],
                           [-1.10100e-02, -2.07000e-02, -1.42900e-02,  2.38800e-03,  2.38200e-03, -4.46500e-04, -5.03900e-04, -4.23500e-07]])

# Reaction 2
chebyshev_reaction('aQOOHg (+ M) <=> aQOOHb (+ M)',
                   Tmin=180.0, Tmax=1500.0,
                   Pmin=(0.01, 'atm'), Pmax=(98.692, 'atm'),
                   coeffs=[[-5.76000e+00,  1.79500e+00, -3.41700e-02, -7.18400e-02, -2.22600e-02,  4.84600e-03,  2.44200e-03, -2.00200e-04],
                           [-4.45300e+00,  2.08300e+00,  2.63200e-01,  7.03400e-02, -5.90100e-03, -1.22500e-02, -2.44700e-03,  6.87500e-04],
                           [-3.27400e+00,  2.23200e-02, -7.87500e-02,  2.80800e-02,  2.68300e-02,  7.10100e-03, -9.12700e-04, -1.50300e-03],
                           [-1.69300e+00, -2.01400e-01, -4.79400e-02,  8.31100e-05, -4.07600e-03,  1.03700e-03,  2.47100e-03,  1.05300e-03],
                           [-7.94300e-01, -1.47700e-01,  5.73800e-03,  2.17200e-02, -3.68400e-03, -5.06300e-03, -5.41000e-04,  7.89700e-04],
                           [-3.82600e-01, -1.02800e-01,  1.81500e-04,  1.59700e-02,  1.19300e-03, -2.12600e-03, -7.23300e-04, -2.01900e-05],
                           [-1.70100e-01, -5.90000e-02, -2.22400e-03,  4.91400e-03,  6.84500e-04, -7.65300e-04, -4.95300e-04, -1.98900e-04],
                           [-5.90600e-02, -3.91500e-02,  2.30500e-03,  6.46200e-03,  2.15700e-03, -3.66300e-04, -6.79600e-04, -3.20600e-04],
                           [-3.38000e-02, -2.86900e-02, -4.86300e-03,  6.51300e-03,  4.01000e-03,  6.37900e-04, -1.83800e-04, -1.33000e-04],
                           [-9.99100e-03, -4.45300e-02, -1.78400e-02,  1.80000e-03,  4.33900e-03,  1.01700e-03, -4.15200e-05,  8.89900e-05]])

# Reaction 3
chebyshev_reaction('aRO2 (+ M) <=> aQOOHb (+ M)',
                   Tmin=180.0, Tmax=1500.0,
                   Pmin=(0.01, 'atm'), Pmax=(98.692, 'atm'),
                   coeffs=[[-8.00400e+00,  1.29700e+00, -5.18100e-03, -2.44700e-02, -1.99200e-03,  1.69100e-03,  3.56600e-04, -1.94400e-04],
                           [ 6.40700e+00,  1.98700e+00,  5.06700e-02, -3.17700e-02, -4.19000e-03,  1.49700e-03,  5.81400e-04, -1.99700e-04],
                           [-2.23100e+00,  7.87900e-01,  1.08400e-01,  1.59700e-02, -4.37000e-03, -2.02500e-03,  1.67900e-04,  1.37900e-04],
                           [-1.67900e+00, -5.63700e-02,  6.22200e-02,  4.98600e-02,  9.06200e-04, -3.88000e-03, -3.73500e-04,  2.53000e-04],
                           [-1.05500e+00, -2.80000e-01, -1.56300e-02,  3.93600e-02,  6.66400e-03, -1.88700e-03, -6.06000e-04,  3.10300e-05],
                           [-5.13300e-01, -1.83600e-01, -4.12100e-02,  9.12500e-03,  5.03100e-03,  1.19400e-03, -1.06000e-04, -2.14100e-04],
                           [-2.05000e-01, -7.08600e-02, -2.36300e-02, -5.74900e-03, -5.25500e-04,  1.54600e-03,  4.64100e-04, -1.34300e-04],
                           [-8.65200e-02, -2.91400e-02, -6.35000e-03, -2.37600e-03, -2.24100e-03, -1.76900e-04,  2.45100e-04,  1.01000e-04],
                           [-9.09600e-03, -2.54800e-02, -5.32600e-03,  3.07500e-03,  4.57700e-04, -1.00300e-03, -3.85900e-04,  1.26100e-04],
                           [-1.06100e-02, -2.18700e-02, -1.28100e-02,  2.06300e-03,  2.80700e-03, -1.08300e-04, -5.13200e-04, -3.41500e-05]])

# Reaction 4
chebyshev_reaction('aadduct (+ M) <=> aQOOHb (+ M)',
                   Tmin=180.0, Tmax=1500.0,
                   Pmin=(0.01, 'atm'), Pmax=(98.692, 'atm'),
                   coeffs=[[-1.25900e+01,  1.05700e+00, -7.92400e-02, -7.62500e-03,  9.34400e-03, -4.25900e-04, -1.30900e-03, -2.43600e-04],
                           [ 1.03500e+00,  2.03200e+00,  1.19000e-01, -2.48400e-02, -1.34300e-02,  7.23900e-04,  1.75400e-03,  2.34000e-04],
                           [-2.24000e+00,  8.53300e-01,  1.21400e-01,  8.38600e-03, -3.79500e-03, -1.85500e-03, -1.42500e-03,  2.97700e-04],
                           [-1.77700e+00,  1.09600e-01,  6.29200e-02,  2.57900e-02, -1.19200e-03, -1.19700e-05,  9.40300e-04, -4.33100e-04],
                           [-8.63700e-01, -4.32000e-01, -5.18300e-03,  6.01300e-02,  4.08400e-03, -5.38600e-03,  1.25200e-04,  8.29400e-04],
                           [-4.46800e-01, -2.10900e-01, -3.31600e-02,  1.23100e-02,  6.05600e-04,  1.34400e-03,  1.54500e-03, -3.96800e-04],
                           [-1.45800e-01, -8.91000e-02, -3.32600e-02, -3.77900e-03,  2.95300e-03,  1.53800e-03, -1.00500e-03, -3.25900e-04],
                           [-1.91600e-01,  9.63800e-02, -1.66800e-02, -1.94500e-02,  2.55700e-03,  3.71900e-03, -1.13500e-03, -8.65200e-04],
                           [ 6.92700e-02, -9.59200e-02, -1.21600e-02,  1.44200e-02,  1.42200e-03, -4.19400e-03, -6.33500e-04,  9.10200e-04],
                           [ 5.05500e-02, -9.61100e-02, -4.63300e-03,  1.27700e-02, -3.93900e-04, -1.88500e-03,  7.12500e-04,  3.37900e-04]])

# Reaction 5
chebyshev_reaction('O2 + aR (+ M) <=> aQOOHb (+ M)',
                   Tmin=180.0, Tmax=1500.0,
                   Pmin=(0.01, 'atm'), Pmax=(98.692, 'atm'),
                   coeffs=[[ 1.14100e+00,  3.13900e+00, -6.80200e-01, -1.49900e-01,  2.26000e-03,  3.62900e-02,  5.54800e-03, -1.07400e-02],
                           [-2.45400e+00,  1.17600e+00,  5.80500e-01, -5.08800e-03, -1.51600e-02, -4.45300e-02,  1.39700e-04,  1.55900e-02],
                           [-1.45300e+00,  4.48100e-02,  2.42800e-01,  4.62500e-02,  7.04200e-03,  3.49700e-03, -9.72400e-03, -2.84900e-03],
                           [-8.92000e-01, -2.45700e-01,  4.93000e-02,  2.56600e-02,  1.72000e-03,  1.02400e-02,  1.69900e-03, -4.01800e-03],
                           [-4.54100e-01, -1.84900e-01, -1.48900e-02,  3.47100e-03, -5.13100e-03,  2.68500e-03,  4.86100e-03,  5.59100e-05],
                           [-1.89600e-01, -7.48700e-02, -9.39400e-03, -4.26300e-03, -6.41100e-03, -2.94500e-03,  2.14600e-03,  1.62800e-03],
                           [-6.43800e-02, -9.49300e-03,  1.14100e-02,  4.46300e-04, -4.70800e-03, -4.43100e-03, -3.53300e-04,  1.06400e-03],
                           [-2.13300e-02,  1.47800e-03,  2.03600e-02,  8.73500e-03, -1.11100e-03, -3.67500e-03, -1.43100e-03,  2.50800e-04],
                           [-1.50600e-02, -1.15100e-02,  1.17100e-02,  1.25600e-02,  2.91200e-03, -2.05000e-03, -1.41500e-03, -1.64700e-04],
                           [-1.62200e-02, -2.76300e-02, -4.01800e-03,  8.60100e-03,  5.36900e-03,  7.12600e-05, -9.17800e-04, -2.88900e-04]])
#  aQOOHb(+M) <=> aQOOH[O](+M)                         1.000e+00 0.000     0.000
#      TCHEB/ 180.000   1500.000 /
#      PCHEB/ 0.010     98.692   /
#      CHEB/ 10 8/
#      CHEB/ -9.485e+00   1.184e+00    -7.792e-02   -5.775e-03   -5.885e-03  /
#      CHEB/ 3.889e-03    6.653e-04    -3.421e-04   2.537e+00    2.291e+00   /
#      CHEB/ 2.224e-01    -5.157e-02   -8.061e-03   -1.524e-04   -5.201e-05  /
#      CHEB/ -5.144e-05   -2.513e+00   3.972e-01    1.094e-01    2.159e-02   /
#      CHEB/ 1.084e-03    2.894e-04    1.528e-04    4.802e-05    -1.492e+00  /
#      CHEB/ -1.740e-01   8.587e-03    3.220e-02    -1.069e-03   -4.154e-03  /
#      CHEB/ -1.110e-04   4.899e-04    -8.140e-01   -2.080e-01   -5.564e-03  /
#      CHEB/ 3.548e-02    4.565e-03    -2.920e-03   -6.875e-04   1.197e-05   /
#      CHEB/ -4.211e-01   -1.471e-01   -1.430e-02   1.706e-02    4.147e-03   /
#      CHEB/ 6.965e-04    2.247e-04    -2.419e-04   -2.035e-01   -9.124e-02  /
#      CHEB/ -1.286e-02   8.577e-04    -8.779e-04   1.220e-03    7.616e-04   /
#      CHEB/ -1.223e-04   -8.945e-02   -4.646e-02   -5.658e-03   9.024e-05   /
#      CHEB/ -1.984e-03   -1.802e-04   3.811e-04    8.492e-05    -3.517e-02  /
#      CHEB/ -4.215e-02   -8.407e-03   2.171e-03    -3.189e-05   -8.050e-04  /
#      CHEB/ -2.720e-04   1.494e-04    -1.100e-02   -2.070e-02   -1.429e-02  /
#      CHEB/ 2.388e-03    2.382e-03    -4.465e-04   -5.039e-04   -4.235e-07  /

# Reaction 6
chebyshev_reaction('aQOOHg (+ M) <=> aQOOH[O] (+ M)',
                   Tmin=180.0, Tmax=1500.0,
                   Pmin=(0.01, 'atm'), Pmax=(98.692, 'atm'),
                   coeffs=[[-1.74100e+00,  2.39700e+00, -2.04700e-01, -3.59400e-02,  2.73600e-02,  6.25000e-04, -4.39200e-03,  1.29300e-03],
                           [-5.64900e+00,  9.46100e-04,  2.85600e-01,  8.93800e-02, -2.70600e-02, -1.43700e-03,  3.38900e-03, -1.85000e-03],
                           [-3.34600e+00, -7.37800e-02, -1.04900e-01, -7.54800e-03,  1.09700e-02,  4.06500e-03,  8.22300e-04, -3.76500e-04],
                           [-1.38400e+00,  7.93100e-02, -2.99500e-02, -2.27400e-02, -7.17100e-03, -4.31400e-05,  5.09200e-04,  4.64700e-04],
                           [-6.36300e-01,  4.79500e-02,  2.60100e-02,  1.14900e-02,  3.22200e-03, -7.46500e-04, -1.53500e-03, -5.50000e-04],
                           [-3.60400e-01, -5.55600e-02,  9.99600e-03,  1.44500e-02,  6.38800e-03,  2.27400e-03,  1.25600e-04, -4.76500e-04],
                           [-2.41000e-01, -6.52500e-02, -1.42300e-02,  2.15600e-03,  3.58100e-03,  1.34400e-03,  2.40300e-04,  1.02500e-04],
                           [-8.94700e-02, -9.59000e-02, -1.21300e-02,  2.67500e-03,  5.41900e-04,  6.22200e-05,  1.24500e-04, -4.45800e-05],
                           [-8.97100e-02, -2.70400e-02, -2.37000e-02, -4.46400e-03,  1.78300e-03,  1.43100e-03,  8.69400e-06, -1.28800e-04],
                           [ 1.25900e-02, -6.35800e-02, -1.66900e-02, -2.87000e-03, -6.90400e-04,  4.36100e-04,  6.53800e-04,  7.20700e-05]])

# Reaction 7
chebyshev_reaction('aRO2 (+ M) <=> aQOOH[O] (+ M)',
                   Tmin=180.0, Tmax=1500.0,
                   Pmin=(0.01, 'atm'), Pmax=(98.692, 'atm'),
                   coeffs=[[-5.63300e+00,  1.39200e+00, -8.66000e-02, -1.26700e-04,  8.10400e-04,  6.88400e-04, -3.70900e-05, -2.27500e-05],
                           [ 7.53000e+00,  9.27600e-01,  1.19400e-01,  1.03000e-02, -2.97500e-03, -5.25900e-04,  1.15800e-04,  4.34600e-05],
                           [-2.77100e+00,  1.34700e-01,  3.17600e-02,  1.76000e-02,  3.31400e-03,  1.49200e-04, -1.51000e-04, -6.68900e-05],
                           [-1.53000e+00, -2.25200e-02, -5.29500e-04,  3.47500e-03,  1.62800e-03,  6.32800e-04,  6.15500e-05, -4.51300e-05],
                           [-8.46000e-01, -3.50100e-02,  6.86400e-03,  3.39700e-03,  3.29900e-04,  5.75000e-05, -6.89700e-05, -4.00700e-05],
                           [-4.72700e-01, -5.10200e-02,  6.07900e-03,  6.59000e-03,  1.32200e-03,  6.29000e-05, -1.61800e-04, -8.06600e-05],
                           [-2.53700e-01, -6.65500e-02, -3.90800e-03,  5.65500e-03,  1.86300e-03,  3.14800e-04, -9.49100e-05, -6.51200e-05],
                           [-1.22100e-01, -6.21400e-02, -1.57400e-02,  2.60700e-03,  1.66200e-03,  3.28600e-04,  1.41800e-06, -2.32500e-05],
                           [-4.17000e-02, -4.90500e-02, -1.98700e-02, -1.12500e-03,  9.81200e-04,  3.76300e-04,  5.33000e-05,  1.67400e-05],
                           [-6.66700e-03, -1.89300e-02, -2.06700e-02, -4.24800e-03,  2.48800e-04,  3.36800e-04,  1.71400e-04,  4.77300e-05]])

# Reaction 8
chebyshev_reaction('aadduct (+ M) <=> aQOOH[O] (+ M)',
                   Tmin=180.0, Tmax=1500.0,
                   Pmin=(0.01, 'atm'), Pmax=(98.692, 'atm'),
                   coeffs=[[-1.02300e+01,  1.14300e+00, -1.71600e-01,  1.61300e-02,  1.38400e-02, -4.10300e-04, -1.49600e-03, -1.67200e-04],
                           [ 2.20100e+00,  9.93400e-01,  1.84400e-01,  1.53400e-02, -1.33500e-02, -2.00700e-03,  1.12100e-03,  4.88900e-04],
                           [-2.76200e+00,  1.98000e-01,  3.34700e-02,  6.49200e-03,  4.44400e-03,  9.59700e-04, -1.46100e-03,  1.33400e-04],
                           [-1.62400e+00,  1.45300e-01, -7.25500e-03, -2.16400e-02,  1.15000e-03,  5.26600e-03,  1.38400e-03, -9.20400e-04],
                           [-6.35700e-01, -1.81100e-01,  1.11800e-02,  2.06500e-02, -2.78900e-03, -3.41000e-03,  7.89900e-04,  8.44000e-04],
                           [-3.98900e-01, -7.19700e-02,  1.07800e-02,  7.60900e-03, -2.96800e-03,  5.84500e-04,  1.60000e-03, -2.93400e-04],
                           [-1.88000e-01, -8.06600e-02, -1.69700e-02,  5.75200e-03,  5.49100e-03,  7.28800e-04, -1.46200e-03, -2.95800e-04],
                           [-2.23700e-01,  7.13400e-02, -2.78900e-02, -1.71900e-02,  5.47200e-03,  4.31800e-03, -1.18400e-03, -9.16000e-04],
                           [ 3.88100e-02, -1.16600e-01, -2.68800e-02,  9.41500e-03,  2.07000e-03, -2.50400e-03, -1.45100e-04,  7.49200e-04],
                           [ 5.85200e-02, -8.90000e-02, -1.17400e-02,  4.67200e-03, -3.92100e-03, -1.52600e-03,  1.50100e-03,  4.79900e-04]])

# Reaction 9
chebyshev_reaction('O2 + aR (+ M) <=> aQOOH[O] (+ M)',
                   Tmin=180.0, Tmax=1500.0,
                   Pmin=(0.01, 'atm'), Pmax=(98.692, 'atm'),
                   coeffs=[[ 2.83000e+00,  1.95700e+00, -3.76800e-01,  1.17700e-01, -1.08100e-02, -6.73800e-03,  4.41000e-03, -9.81100e-04],
                           [-1.92000e+00,  7.07100e-01,  1.02300e-01, -1.64200e-01,  3.94200e-02,  4.25000e-03, -6.04200e-03,  2.04600e-03],
                           [-9.70400e-01,  3.20700e-01,  1.48100e-01, -5.97800e-02, -2.00200e-02,  1.24800e-02, -6.70600e-04, -1.37500e-03],
                           [-6.26700e-01,  1.19400e-01,  1.33700e-01,  3.76800e-03, -2.43000e-02,  1.77700e-03,  2.92800e-03, -8.82900e-04],
                           [-4.28500e-01,  5.59100e-03,  8.48800e-02,  2.96000e-02, -1.12300e-02, -4.10600e-03,  1.73900e-03,  2.38600e-04],
                           [-2.92400e-01, -5.82700e-02,  3.76500e-02,  2.99300e-02, -1.74200e-04, -3.87700e-03, -5.48900e-05,  4.03300e-04],
                           [-1.91400e-01, -8.71800e-02,  3.51200e-03,  2.04000e-02,  4.41800e-03, -1.82100e-03, -6.82000e-04,  1.16100e-04],
                           [-1.16000e-01, -8.25900e-02, -1.95700e-02,  1.03300e-02,  4.66800e-03, -2.27100e-04, -5.57800e-04, -6.76200e-05],
                           [-5.06100e-02, -6.57900e-02, -2.59200e-02,  1.57900e-03,  3.33100e-03,  4.78600e-04, -2.14500e-04, -7.43500e-05],
                           [-1.51600e-02, -3.47300e-02, -2.86000e-02, -3.72800e-03,  1.69400e-03,  6.62200e-04,  7.08400e-05, -1.48800e-05]])
#  aQOOHb(+M) <=> aQOOHg(+M)                           1.000e+00 0.000     0.000
#      TCHEB/ 180.000   1500.000 /
#      PCHEB/ 0.010     98.692   /
#      CHEB/ 10 8/
#      CHEB/ -1.345e+01   1.795e+00    -3.417e-02   -7.184e-02   -2.226e-02  /
#      CHEB/ 4.846e-03    2.442e-03    -2.002e-04   3.884e-01    2.083e+00   /
#      CHEB/ 2.632e-01    7.034e-02    -5.901e-03   -1.225e-02   -2.447e-03  /
#      CHEB/ 6.875e-04    -3.051e+00   2.232e-02    -7.875e-02   2.808e-02   /
#      CHEB/ 2.683e-02    7.101e-03    -9.127e-04   -1.503e-03   -1.599e+00  /
#      CHEB/ -2.014e-01   -4.794e-02   8.311e-05    -4.076e-03   1.037e-03   /
#      CHEB/ 2.471e-03    1.053e-03    -7.661e-01   -1.477e-01   5.738e-03   /
#      CHEB/ 2.172e-02    -3.684e-03   -5.063e-03   -5.410e-04   7.897e-04   /
#      CHEB/ -3.747e-01   -1.028e-01   1.815e-04    1.597e-02    1.193e-03   /
#      CHEB/ -2.126e-03   -7.233e-04   -2.019e-05   -1.676e-01   -5.900e-02  /
#      CHEB/ -2.224e-03   4.914e-03    6.845e-04    -7.653e-04   -4.953e-04  /
#      CHEB/ -1.989e-04   -5.833e-02   -3.915e-02   2.305e-03    6.462e-03   /
#      CHEB/ 2.157e-03    -3.663e-04   -6.796e-04   -3.206e-04   -3.378e-02  /
#      CHEB/ -2.869e-02   -4.863e-03   6.513e-03    4.010e-03    6.379e-04   /
#      CHEB/ -1.838e-04   -1.330e-04   -1.013e-02   -4.453e-02   -1.784e-02  /
#      CHEB/ 1.800e-03    4.339e-03    1.017e-03    -4.152e-05   8.899e-05   /
#  aQOOH[O](+M) <=> aQOOHg(+M)                         1.000e+00 0.000     0.000
#      TCHEB/ 180.000   1500.000 /
#      PCHEB/ 0.010     98.692   /
#      CHEB/ 10 8/
#      CHEB/ -4.978e+00   2.397e+00    -2.047e-01   -3.594e-02   2.736e-02   /
#      CHEB/ 6.250e-04    -4.392e-03   1.293e-03    -2.956e+00   9.461e-04   /
#      CHEB/ 2.856e-01    8.938e-02    -2.706e-02   -1.437e-03   3.389e-03   /
#      CHEB/ -1.850e-03   -3.200e+00   -7.378e-02   -1.049e-01   -7.548e-03  /
#      CHEB/ 1.097e-02    4.065e-03    8.223e-04    -3.765e-04   -1.336e+00  /
#      CHEB/ 7.931e-02    -2.995e-02   -2.274e-02   -7.171e-03   -4.314e-05  /
#      CHEB/ 5.092e-04    4.647e-04    -6.235e-01   4.795e-02    2.601e-02   /
#      CHEB/ 1.149e-02    3.222e-03    -7.465e-04   -1.535e-03   -5.500e-04  /