units(length='cm', time='s', quantity='mol', act_energy='kcal/mol')

ideal_gas(name='gas',
          elements="H D T C Ci O Oi N Ne Ar He Si S F Cl Br I X",
          species="""aOOHbalkene      OH               ibutanal
                     aR               performic_acid   disub_c4ether
                     aQOOHb           H                aadduct
                     trisub_epoxy     ibutenol         aQOOH[O]
                     ipropyl          aRO2             O2
                     formic_acid      propene          aQOOHg
                     ibut_peroxyacid  HO2              CH3""",
          reactions='all',
          initial_state=state(temperature=300.0, pressure=OneAtm))

#-------------------------------------------------------------------------------
# Element data
#-------------------------------------------------------------------------------

element(symbol='Ci', atomic_mass=13.003)
element(symbol='D', atomic_mass=2.014)
element(symbol='Oi', atomic_mass=18.0)
element(symbol='T', atomic_mass=3.016)
element(symbol='X', atomic_mass=195.083)
#-------------------------------------------------------------------------------
# Species data
#-------------------------------------------------------------------------------

species(name='aOOHbalkene',
        atoms='C:3 H:6 O:3',
        thermo=(NASA([10.00, 497.41],
                     [ 3.76691735E+00,  1.51417956E-02,  1.85499431E-04,
                      -4.61303214E-07,  3.27678941E-10, -3.20380528E+04,
                       1.09903968E+01]),
                NASA([497.41, 3000.00],
                     [ 6.20882781E+00,  4.08866173E-02, -2.89934946E-05,
                       9.60428979E-09, -1.19355432E-12, -3.28423821E+04,
                      -4.72842811E+00])))

species(name='OH',
        atoms='H:1 O:1',
        thermo=(NASA([10.00, 984.14],
                     [ 3.49686242E+00,  1.83973160E-04, -9.97634499E-07,
                       1.56942783E-09, -6.10128175E-13,  3.41673934E+03,
                       1.48093120E+00]),
                NASA([984.14, 3000.00],
                     [ 3.45221464E+00, -2.95124034E-04,  7.39418622E-07,
                      -2.89309866E-10,  3.53041498E-14,  3.45751599E+03,
                       1.85813897E+00])))

species(name='ibutanal',
        atoms='C:4 H:8 O:1',
        thermo=(NASA([10.00, 683.88],
                     [ 3.57157346E+00,  3.36936906E-02, -1.78475021E-05,
                       1.31946716E-08, -7.58008388E-12, -2.84523997E+04,
                       1.05595084E+01]),
                NASA([683.88, 3000.00],
                     [ 1.29043622E+00,  4.14804229E-02, -2.27411206E-05,
                       6.08619500E-09, -6.38995128E-13, -2.80104806E+04,
                       2.16477430E+01])))

species(name='aR',
        atoms='C:4 H:9 O:1',
        thermo=(NASA([10.00, 455.22],
                     [ 3.59625500E+00,  3.38947981E-02,  7.37257079E-06,
                      -3.99275335E-08,  2.49019944E-11, -1.34331789E+04,
                       1.18269265E+01]),
                NASA([455.22, 3000.00],
                     [ 2.49586309E+00,  4.35639890E-02, -2.44887770E-05,
                       6.73363769E-09, -7.23862433E-13, -1.33329957E+04,
                       1.62696907E+01])))

species(name='performic_acid',
        atoms='C:1 H:2 O:3',
        thermo=(NASA([10.00, 590.95],
                     [ 3.92633851E+00,  4.24517168E-03,  6.71106764E-05,
                      -1.36545385E-07,  8.03337864E-11, -3.63028176E+04,
                       8.06485813E+00]),
                NASA([590.95, 3000.00],
                     [ 4.39992934E+00,  1.85411415E-02, -1.36005501E-05,
                       4.62292431E-09, -5.88463603E-13, -3.66643888E+04,
                       3.44353230E+00])))

species(name='disub_c4ether',
        atoms='C:4 H:8 O:2',
        thermo=(NASA([10.00, 413.50],
                     [ 3.78241323E+00,  1.89501763E-02,  8.65302396E-05,
                      -1.80580575E-07,  1.13656264E-10, -4.06545773E+04,
                       1.09982450E+01]),
                NASA([413.50, 3000.00],
                     [ 4.29420885E-01,  5.13851903E-02, -3.11292293E-05,
                       9.11498284E-09, -1.03192718E-12, -4.03772829E+04,
                       2.42134976E+01])))

species(name='aQOOHb',
        atoms='C:4 H:9 O:3',
        thermo=(NASA([10.00, 412.78],
                     [ 3.15498836E+00,  8.55068303E-02, -2.35307993E-04,
                       4.71983261E-07, -3.62709267E-10, -2.80832364E+04,
                       1.52522123E+01]),
                NASA([412.78, 3000.00],
                     [ 4.18099845E+00,  5.26168288E-02, -3.23998410E-05,
                       9.59389339E-09, -1.09464519E-12, -2.79724415E+04,
                       1.35782328E+01])))

species(name='H',
        atoms='H:1',
        thermo=(NASA([10.00, 794.01],
                     [ 2.50000000E+00,  1.99051163E-15, -1.19089508E-17,
                       2.10805655E-20, -1.11017699E-23,  2.54725594E+04,
                      -4.61279342E-01]),
                NASA([794.01, 3000.00],
                     [ 2.50000000E+00,  1.52667235E-14, -1.58445285E-17,
                       6.63088600E-21, -9.62111674E-25,  2.54725594E+04,
                      -4.61279342E-01])))

species(name='aadduct',
        atoms='C:4 H:9 O:3',
        thermo=(NASA([10.00, 449.84],
                     [ 3.06901904E+00,  9.20724491E-02, -2.68085092E-04,
                       5.15249897E-07, -3.68046586E-10, -3.31203068E+04,
                       1.46591735E+01]),
                NASA([449.84, 3000.00],
                     [ 4.11210745E+00,  5.16955724E-02, -2.97401041E-05,
                       8.32758939E-09, -9.08861448E-13, -3.28994659E+04,
                       1.39578825E+01])))

species(name='trisub_epoxy',
        atoms='C:4 H:8 O:2',
        thermo=(NASA([10.00, 209.19],
                     [ 3.75295042E+00,  2.37546930E-02,  1.26610110E-04,
                      -4.78364365E-07,  5.79468168E-10, -3.73344823E+04,
                       1.12739684E+01]),
                NASA([209.19, 3000.00],
                     [ 2.64185254E+00,  4.50006531E-02, -2.57361066E-05,
                       7.15266054E-09, -7.72980731E-13, -3.72879967E+04,
                       1.48960343E+01])))

species(name='ibutenol',
        atoms='C:4 H:8 O:1',
        thermo=(NASA([10.00, 135.97],
                     [ 3.95714996E+00,  5.72646980E-03,  4.63611760E-04,
                      -3.04137514E-06,  6.85019471E-09, -2.32694518E+04,
                       8.21931848E+00]),
                NASA([135.97, 3000.00],
                     [ 3.32467612E+00,  3.69033556E-02, -1.89960416E-05,
                       4.73417677E-09, -4.59705291E-13, -2.32638732E+04,
                       9.58133237E+00])))

species(name='aQOOH[O]',
        atoms='C:4 H:9 O:3',
        thermo=(NASA([10.00, 488.36],
                     [ 3.54559533E+00,  3.89536133E-02,  8.47689703E-05,
                      -2.45147486E-07,  1.76157259E-10, -2.40367180E+04,
                       1.34685910E+01]),
                NASA([488.36, 3000.00],
                     [ 3.94214913E+00,  5.71928314E-02, -3.72516212E-05,
                       1.15209013E-08, -1.35808341E-12, -2.43316790E+04,
                       9.21628964E+00])))

species(name='ipropyl',
        atoms='C:3 H:7',
        thermo=(NASA([10.00, 421.76],
                     [ 3.73943775E+00,  3.10070157E-02, -1.51196908E-04,
                       4.35367329E-07, -3.85565052E-10,  9.49213457E+03,
                       7.79448918E+00]),
                NASA([421.76, 3000.00],
                     [-4.74526725E-01,  3.20862468E-02, -1.67340747E-05,
                       4.21365136E-09, -4.13155573E-13,  1.01934458E+04,
                       2.85865912E+01])))

species(name='aRO2',
        atoms='C:4 H:9 O:3',
        thermo=(NASA([10.00, 670.36],
                     [ 3.45405325E+00,  4.74751311E-02,  9.77507759E-06,
                      -6.31019603E-08,  3.75500067E-11, -3.40349001E+04,
                       1.39284976E+01]),
                NASA([670.36, 3000.00],
                     [ 5.04137652E+00,  5.19952978E-02, -3.16472789E-05,
                       9.22798587E-09, -1.03598915E-12, -3.45620926E+04,
                       4.56056770E+00])))

species(name='O2',
        atoms='O:2',
        thermo=(NASA([10.00, 605.96],
                     [ 3.50743498E+00, -4.43860349E-04,  1.45938058E-06,
                       1.61509333E-09, -2.32050052E-12, -9.24756224E+02,
                       4.72183634E+00]),
                NASA([605.96, 3000.00],
                     [ 2.87462882E+00,  2.17840991E-03, -1.18262921E-06,
                       2.86910493E-10, -2.53297146E-14, -8.19517838E+02,
                       7.69331810E+00])))

species(name='formic_acid',
        atoms='C:1 H:2 O:2',
        thermo=(NASA([10.00, 741.38],
                     [ 4.06855785E+00, -4.74562133E-03,  4.71797900E-05,
                      -6.07490052E-08,  2.51286794E-11, -4.66880837E+04,
                       6.53681035E+00]),
                NASA([741.38, 3000.00],
                     [ 1.13645847E+00,  1.74953124E-02, -1.08112403E-05,
                       3.08075326E-09, -3.34892658E-13, -4.64297918E+04,
                       1.86149484E+01])))

species(name='propene',
        atoms='C:3 H:6',
        thermo=(NASA([10.00, 519.53],
                     [ 3.98723879E+00,  4.72040503E-04,  6.51776229E-05,
                      -9.89891002E-08,  4.91141123E-11,  1.74038924E+03,
                       6.98071210E+00]),
                NASA([519.53, 3000.00],
                     [ 3.79893331E-01,  2.82457690E-02, -1.50108430E-05,
                       3.90894069E-09, -4.00521928E-13,  2.11521659E+03,
                       2.20218922E+01])))

species(name='aQOOHg',
        atoms='C:4 H:9 O:3',
        thermo=(NASA([10.00, 455.48],
                     [ 3.62522127E+00,  2.83222320E-02,  2.08527447E-04,
                      -5.67427418E-07,  4.35169138E-10, -2.60834689E+04,
                       1.26617758E+01]),
                NASA([455.48, 3000.00],
                     [ 5.13914202E+00,  5.96270859E-02, -4.14435328E-05,
                       1.34202375E-08, -1.63474553E-12, -2.66840252E+04,
                       1.46991116E+00])))

species(name='ibut_peroxyacid',
        atoms='C:4 H:8 O:3',
        thermo=(NASA([10.00, 1386.21],
                     [ 3.50995385E+00,  4.78670384E-02, -2.40781384E-05,
                       3.71046938E-09,  3.85442115E-13, -4.73111627E+04,
                       1.22017268E+01]),
                NASA([1386.21, 3000.00],
                     [ 1.24543146E+01,  3.02396862E-02, -1.38577031E-05,
                       3.05328904E-09, -2.63982457E-13, -5.05770460E+04,
                      -3.67061828E+01])))

species(name='HO2',
        atoms='H:1 O:2',
        thermo=(NASA([10.00, 891.11],
                     [ 4.02887004E+00, -1.75769289E-03,  1.08726004E-05,
                      -1.13812972E-08,  3.90113097E-12,  4.95165001E+02,
                       4.69302008E+00]),
                NASA([891.11, 3000.00],
                     [ 3.06571044E+00,  4.28505005E-03, -2.19325920E-06,
                       5.58882699E-10, -5.61246669E-14,  5.98557610E+02,
                       8.84564156E+00])))

species(name='CH3',
        atoms='C:1 H:3',
        thermo=(NASA([10.00, 616.77],
                     [ 3.98929952E+00,  5.45150461E-04,  9.01320092E-06,
                      -1.08320497E-08,  4.38985879E-12,  1.65859883E+04,
                       2.22446886E-01]),
                NASA([616.77, 3000.00],
                     [ 3.35928237E+00,  4.63117126E-03, -9.24365433E-07,
                      -9.02514624E-11,  3.56905106E-14,  1.66637014E+04,
                       2.95743732E+00])))

#-------------------------------------------------------------------------------
# Reaction data
#-------------------------------------------------------------------------------

# Reaction 1
chebyshev_reaction('aQOOH[O] (+ M) <=> aQOOHb (+ M)',
                   Tmin=180.0, Tmax=1500.0,
                   Pmin=(0.01, 'atm'), Pmax=(98.692, 'atm'),
                   coeffs=[[ 2.21900e+00,  1.42800e+00, -3.07700e-01,  2.75200e-02,  5.74400e-03, -2.96600e-03,  1.09300e-04,  1.83300e-04],
                           [ 2.74700e+00,  1.40300e+00, -1.47700e-01, -6.93500e-02,  1.07000e-02,  6.96400e-03, -1.62300e-04, -1.50500e-04],
                           [ 8.25800e-02,  5.32000e-01,  1.29700e-01, -2.18200e-02, -1.66500e-02,  1.60900e-03,  2.42000e-03, -1.57100e-04],
                           [-3.02300e-01,  9.65100e-02,  8.48200e-02,  7.48300e-04, -7.78400e-03, -2.87000e-03,  1.18200e-03,  8.01300e-04],
                           [-1.68600e-01,  4.96600e-02,  3.65700e-02,  3.73500e-03, -2.37000e-03, -2.07700e-03, -1.03200e-03,  4.87700e-04],
                           [-4.59500e-02,  4.01400e-02,  7.52100e-03,  4.99800e-03,  5.44600e-04, -4.67600e-04, -9.03300e-04, -2.65300e-04],
                           [-1.05100e-02,  1.52800e-02, -3.15500e-03, -7.51400e-05,  1.21900e-03,  4.10600e-04, -1.69000e-04, -2.52400e-04],
                           [-3.10000e-02,  7.55200e-03,  2.53900e-03, -1.97500e-04,  4.33400e-05, -5.90200e-05,  2.59000e-05, -3.12800e-05],
                           [ 1.61300e-02, -8.66400e-03, -1.67900e-03, -1.49700e-03, -2.54700e-05,  1.93400e-04,  5.39700e-07,  1.80600e-05],
                           [-9.14200e-03,  1.21800e-03,  2.08100e-03,  1.25000e-03, -4.37500e-04, -1.46500e-04,  9.59700e-05,  4.42800e-06]])

# Reaction 2
chebyshev_reaction('aQOOHg (+ M) <=> aQOOHb (+ M)',
                   Tmin=180.0, Tmax=1500.0,
                   Pmin=(0.01, 'atm'), Pmax=(98.692, 'atm'),
                   coeffs=[[-9.01800e-01, -1.88500e-01, -4.71700e-01,  3.70200e-02,  1.24300e-02, -4.02800e-03, -1.15100e-04,  5.54700e-04],
                           [ 5.58600e+00,  1.98000e+00, -2.63000e-01, -5.95200e-02,  1.34300e-02,  3.98500e-03, -1.09200e-03, -7.08900e-05],
                           [-1.10500e-01,  6.62300e-01,  7.92700e-02, -4.66500e-02, -9.65500e-03,  1.98300e-03,  1.88000e-03,  6.15300e-05],
                           [-4.52000e-01,  1.73100e-01,  1.02800e-01, -1.56100e-02, -7.30800e-03, -1.13300e-03,  1.66100e-04,  7.53600e-04],
                           [-1.79200e-01,  5.45900e-02,  5.10300e-02, -2.49400e-04, -3.89600e-03,  3.86600e-04, -8.24800e-04, -7.80500e-05],
                           [-7.48700e-02,  3.88200e-02,  1.19200e-02,  3.16200e-03, -1.34300e-03,  4.94400e-04, -1.34600e-04, -4.64200e-04],
                           [-4.18600e-02,  2.34700e-02,  1.64800e-03,  8.91700e-04,  3.67300e-05,  1.19100e-04,  1.58900e-04, -1.78700e-04],
                           [-2.45400e-02,  7.32800e-03,  1.65700e-03,  1.16100e-04, -1.02100e-04, -3.71300e-05,  1.34200e-04,  2.71700e-05],
                           [-7.59100e-03,  7.44800e-05,  1.46200e-03,  5.55400e-04, -2.25000e-04, -2.02500e-04,  9.34700e-05,  6.65100e-05],
                           [-2.17700e-03, -4.54900e-04,  6.54200e-04,  5.38900e-04,  2.40000e-06, -2.12000e-04,  9.25200e-06,  5.59200e-05]])

# Reaction 3
chebyshev_reaction('aRO2 (+ M) <=> aQOOHb (+ M)',
                   Tmin=180.0, Tmax=1500.0,
                   Pmin=(0.01, 'atm'), Pmax=(98.692, 'atm'),
                   coeffs=[[-5.07200e+00,  9.53700e-01, -2.12900e-01,  2.42100e-04,  5.43800e-03,  2.21700e-04,  8.96000e-05, -1.36200e-05],
                           [ 9.78000e+00,  1.40600e+00, -2.46400e-01, -2.21200e-02,  6.00600e-03,  1.66900e-03,  4.63300e-04, -6.20600e-05],
                           [ 6.08900e-01,  5.49300e-01,  1.14100e-02, -3.12300e-02, -7.22000e-03,  2.49300e-03,  1.31500e-03, -3.62900e-05],
                           [-1.83900e-01,  9.24500e-02,  8.44700e-02, -9.49400e-03, -1.11300e-02, -5.47000e-04,  1.54300e-03,  3.40700e-04],
                           [-2.22100e-01,  2.10700e-02,  4.19400e-02,  4.37600e-03, -3.44100e-03, -2.76500e-03,  2.47400e-04,  6.03800e-04],
                           [-1.17300e-01,  3.97500e-02,  6.42000e-03,  2.99100e-03,  2.14900e-03, -1.43200e-03, -8.76400e-04,  2.64300e-04],
                           [-4.87900e-02,  2.88600e-02, -4.03500e-04,  2.24000e-04,  1.67300e-03,  3.52300e-04, -6.84900e-04, -1.81000e-04],
                           [-2.33400e-02,  7.49600e-03,  1.23300e-03,  6.64600e-05,  7.92800e-05,  6.03900e-04, -7.69200e-05, -2.28100e-04],
                           [-1.40000e-02, -1.25300e-03,  1.32400e-03,  1.45000e-04, -1.68400e-04,  1.85200e-04,  1.25000e-04, -5.81900e-05],
                           [-7.88800e-03, -4.96500e-04,  3.13200e-04, -1.09300e-04,  8.90000e-05, -2.75000e-05,  5.34300e-05,  3.34400e-05]])

# Reaction 4
chebyshev_reaction('aadduct (+ M) <=> aQOOHb (+ M)',
                   Tmin=180.0, Tmax=1500.0,
                   Pmin=(0.01, 'atm'), Pmax=(98.692, 'atm'),
                   coeffs=[[-1.59900e+01,  1.18900e+00, -2.84900e-01,  1.63800e-02,  4.38000e-03, -8.82100e-04,  4.62700e-04, -1.16600e-05],
                           [ 1.14200e+01,  1.44200e+00, -1.82700e-01, -4.88800e-02,  8.84100e-03,  2.94400e-03, -3.41700e-04,  1.12400e-04],
                           [ 3.13400e-01,  4.82100e-01,  7.15400e-02, -3.57900e-02, -1.22600e-02,  3.08400e-03,  1.89400e-03, -2.39600e-04],
                           [-3.57100e-01,  1.16800e-01,  7.94400e-02, -1.32300e-03, -1.10700e-02, -2.30100e-03,  1.65900e-03,  5.88200e-04],
                           [-2.11100e-01,  4.26700e-02,  3.69100e-02,  4.43600e-03, -1.30600e-03, -2.57100e-03, -5.46200e-04,  6.77800e-04],
                           [-4.35500e-02,  3.30300e-02,  9.65100e-03,  1.93300e-03,  1.84900e-03, -4.58600e-04, -9.57400e-04, -4.99400e-05],
                           [ 1.93600e-03,  2.08700e-02, -6.68100e-04,  1.71100e-03,  4.59000e-04,  7.06600e-04, -4.29000e-04, -2.57400e-04],
                           [-1.25600e-02,  5.13300e-03,  5.10000e-04, -3.71800e-04,  6.48800e-04,  1.14300e-04,  1.27300e-04, -1.65800e-04],
                           [-2.05700e-02, -5.97300e-04,  3.78700e-04, -2.97700e-05, -5.69500e-05,  1.68400e-04,  2.34100e-05,  2.78100e-05],
                           [-1.43700e-02, -1.30300e-03,  3.65400e-04, -6.00100e-05, -1.86300e-05, -8.41800e-06,  2.54000e-05,  2.89500e-05]])

# Reaction 5
chebyshev_reaction('O2 + aR (+ M) <=> aQOOHb (+ M)',
                   Tmin=180.0, Tmax=1500.0,
                   Pmin=(0.01, 'atm'), Pmax=(98.692, 'atm'),
                   coeffs=[[ 1.00700e+01,  2.43200e-01, -5.10500e-01, -1.90600e-03,  2.60800e-02, -1.26500e-03, -2.27200e-03,  1.08900e-04],
                           [-2.49200e-01,  1.13800e+00,  1.49800e-01, -9.56600e-02, -2.02200e-02,  9.61800e-03,  2.68100e-03, -5.43700e-04],
                           [-2.28100e-01,  2.64500e-01,  1.39600e-01,  3.62900e-03, -2.32700e-02, -3.03500e-03,  3.09800e-03,  6.81400e-04],
                           [-1.74900e-01,  4.88000e-02,  4.71000e-02,  1.89600e-02, -4.01700e-03, -4.95200e-03, -7.26500e-06,  8.04600e-04],
                           [-5.72600e-02,  2.81300e-02,  7.06900e-03,  5.30700e-03,  3.13100e-03, -1.08900e-03, -1.23500e-03,  9.45300e-05],
                           [-1.35000e-02,  1.47000e-02,  2.50200e-03, -2.51100e-04,  1.34200e-03,  5.93000e-04, -5.24000e-04, -2.77000e-04],
                           [-4.70800e-03, -1.59300e-03,  1.92800e-03,  1.11000e-03,  7.83400e-06,  7.90800e-05,  3.12400e-05, -1.22300e-04],
                           [-3.97300e-03, -8.20700e-03,  3.11900e-04,  1.66500e-03,  1.32300e-04, -2.19700e-04,  2.97600e-05,  1.85600e-05],
                           [ 4.90800e-04, -4.60500e-03, -1.01700e-03,  7.51800e-04,  3.63800e-04, -9.80900e-05, -4.14800e-05,  2.60900e-05],
                           [ 8.23100e-04, -1.87100e-03, -3.51000e-04,  4.54400e-05,  1.00700e-04,  6.50800e-05, -8.37800e-06, -1.36900e-05]])
#  aQOOHb(+M) <=> aQOOH[O](+M)                         1.000e+00 0.000     0.000
#      TCHEB/ 180.000   1500.000 /
#      PCHEB/ 0.010     98.692   /
#      CHEB/ 10 8/
#      CHEB/ -4.742e+00   1.428e+00    -3.077e-01   2.752e-02    5.744e-03   /
#      CHEB/ -2.966e-03   1.093e-04    1.833e-04    6.865e+00    1.403e+00   /
#      CHEB/ -1.477e-01   -6.935e-02   1.070e-02    6.964e-03    -1.623e-04  /
#      CHEB/ -1.505e-04   1.605e-01    5.320e-01    1.297e-01    -2.182e-02  /
#      CHEB/ -1.665e-02   1.609e-03    2.420e-03    -1.571e-04   -2.563e-01  /
#      CHEB/ 9.651e-02    8.482e-02    7.483e-04    -7.784e-03   -2.870e-03  /
#      CHEB/ 1.182e-03    8.013e-04    -1.533e-01   4.966e-02    3.657e-02   /
#      CHEB/ 3.735e-03    -2.370e-03   -2.077e-03   -1.032e-03   4.877e-04   /
#      CHEB/ -4.118e-02   4.014e-02    7.521e-03    4.998e-03    5.446e-04   /
#      CHEB/ -4.676e-04   -9.033e-04   -2.653e-04   -8.702e-03   1.528e-02   /
#      CHEB/ -3.155e-03   -7.514e-05   1.219e-03    4.106e-04    -1.690e-04  /
#      CHEB/ -2.524e-04   -3.029e-02   7.552e-03    2.539e-03    -1.975e-04  /
#      CHEB/ 4.334e-05    -5.902e-05   2.590e-05    -3.128e-05   1.633e-02   /
#      CHEB/ -8.664e-03   -1.679e-03   -1.497e-03   -2.547e-05   1.934e-04   /
#      CHEB/ 5.397e-07    1.806e-05    -9.135e-03   1.218e-03    2.081e-03   /
#      CHEB/ 1.250e-03    -4.375e-04   -1.465e-04   9.597e-05    4.428e-06   /

# Reaction 6
chebyshev_reaction('aQOOHg (+ M) <=> aQOOH[O] (+ M)',
                   Tmin=180.0, Tmax=1500.0,
                   Pmin=(0.01, 'atm'), Pmax=(98.692, 'atm'),
                   coeffs=[[ 8.64300e-01,  7.38500e-01, -2.33200e-01,  2.03700e-02, -1.81200e-03, -3.45000e-03, -4.19200e-04,  3.51300e-04],
                           [ 4.50000e+00,  1.25200e+00, -2.25100e-01,  3.15000e-02,  1.85600e-02, -3.05100e-03, -4.64100e-04,  4.95500e-04],
                           [-4.72100e-01,  5.86900e-01, -3.09100e-02, -3.24300e-02,  1.06500e-02,  5.67800e-04, -1.01300e-03,  2.93800e-04],
                           [-3.70500e-01,  1.99100e-01,  6.45700e-02, -3.03400e-02, -1.81400e-03,  3.17000e-03, -7.04800e-04, -2.95700e-04],
                           [-1.83600e-01,  7.06000e-02,  5.39500e-02, -6.22300e-03, -5.52700e-03,  2.35700e-03,  2.99800e-04, -4.81800e-04],
                           [-6.97400e-02,  3.51500e-02,  1.97700e-02,  1.27300e-03, -3.18700e-03,  3.16500e-04,  5.29700e-04, -1.73300e-04],
                           [-2.77900e-02,  1.98600e-02,  4.41200e-03,  8.30400e-04, -6.96100e-04, -3.38400e-04,  1.58800e-04,  4.29700e-05],
                           [-4.46700e-02,  1.18600e-02,  3.24600e-03,  1.08000e-03,  1.63100e-04, -1.52800e-04, -3.22000e-05,  3.55100e-05],
                           [ 9.23100e-03, -2.65800e-04, -9.38300e-04, -1.81000e-04, -3.16500e-04, -1.52300e-04,  6.31200e-05,  4.38000e-05],
                           [-1.61900e-02,  3.09800e-03,  1.47100e-03,  8.87800e-04,  7.57600e-05, -1.79400e-04,  7.88500e-06,  3.42000e-05]])

# Reaction 7
chebyshev_reaction('aRO2 (+ M) <=> aQOOH[O] (+ M)',
                   Tmin=180.0, Tmax=1500.0,
                   Pmin=(0.01, 'atm'), Pmax=(98.692, 'atm'),
                   coeffs=[[-3.92000e+00,  2.10900e+00, -1.26700e-01, -1.20400e-02, -5.46900e-03, -1.02600e-03,  3.89500e-04,  1.28000e-04],
                           [ 1.01200e+01,  6.05700e-01, -2.03200e-02,  3.84000e-02,  4.73500e-03, -1.97100e-03, -3.84400e-04,  1.59300e-05],
                           [-5.01200e-01,  2.58700e-01, -4.91000e-02,  1.13400e-03,  4.38400e-03, -2.78600e-04,  2.60800e-04,  1.76900e-04],
                           [-1.83000e-01,  1.34000e-01, -1.22200e-02, -1.27400e-02,  1.46400e-04,  4.18800e-04,  1.30700e-04, -2.35700e-05],
                           [-1.48400e-01,  8.54300e-02,  1.93200e-02, -6.51600e-03, -6.99300e-04, -9.38500e-05, -2.53100e-04,  7.76400e-05],
                           [-8.35300e-02,  3.46400e-02,  1.51500e-02, -1.88500e-03, -1.21100e-03,  5.14900e-04,  2.11400e-05, -1.45500e-04],
                           [-3.90900e-02,  1.17500e-02,  5.37700e-03,  3.51800e-04, -5.06800e-04, -8.51100e-05,  1.44800e-04,  2.03800e-05],
                           [-4.41400e-02,  1.43600e-02,  6.15100e-03, -4.52500e-04,  1.73700e-04,  1.38500e-04, -2.24200e-04, -3.60500e-06],
                           [-8.40300e-04, -4.24000e-03, -1.27300e-03,  9.06100e-04, -1.84700e-04, -2.37400e-04,  2.49600e-04,  1.09900e-05],
                           [-1.96100e-02,  6.00700e-03,  1.81900e-03, -4.32800e-04,  5.94600e-04,  1.16400e-04, -2.92700e-04,  1.56200e-05]])

# Reaction 8
chebyshev_reaction('aadduct (+ M) <=> aQOOH[O] (+ M)',
                   Tmin=180.0, Tmax=1500.0,
                   Pmin=(0.01, 'atm'), Pmax=(98.692, 'atm'),
                   coeffs=[[-1.42400e+01,  2.24100e+00, -1.22300e-01, -7.11100e-03, -5.66500e-03, -1.72500e-03,  1.83300e-04,  1.70900e-04],
                           [ 1.06400e+01,  6.68200e-01, -4.71200e-02,  3.39300e-02,  6.72800e-03, -1.38400e-03, -1.87400e-04,  1.85400e-05],
                           [-3.38400e-01,  3.11300e-01, -3.45100e-02, -8.32800e-03,  3.90900e-03, -1.62000e-05,  2.20100e-04,  1.57300e-04],
                           [-2.99700e-01,  1.44800e-01,  1.55700e-02, -1.68000e-02, -7.72200e-04,  4.82300e-04, -8.07100e-05,  1.56500e-05],
                           [-1.77300e-01,  7.28900e-02,  3.28200e-02, -5.17400e-03, -1.77700e-03,  4.80000e-04, -1.72600e-04, -7.58100e-05],
                           [-3.26500e-02,  2.97500e-02,  1.54300e-02, -6.73600e-05, -1.43900e-03,  4.54400e-04,  9.16600e-05, -1.10300e-04],
                           [ 1.01200e-02,  1.28000e-02,  3.17300e-03,  7.80500e-04, -3.28200e-04, -1.48300e-04,  1.08200e-04,  2.84600e-05],
                           [-3.32900e-02,  1.18900e-02,  3.73400e-03,  5.95100e-04,  5.27000e-04, -1.08400e-04, -1.77400e-04,  2.62000e-05],
                           [-6.25600e-03, -3.88600e-03, -1.83900e-03, -1.87000e-04,  1.77200e-04,  3.09600e-05,  2.83600e-05,  5.59500e-06],
                           [-2.85200e-02,  3.59300e-03,  1.38500e-03,  2.19800e-04,  2.85700e-04,  8.72100e-05, -1.20400e-04, -1.24900e-05]])

# Reaction 9
chebyshev_reaction('O2 + aR (+ M) <=> aQOOH[O] (+ M)',
                   Tmin=180.0, Tmax=1500.0,
                   Pmin=(0.01, 'atm'), Pmax=(98.692, 'atm'),
                   coeffs=[[ 1.10700e+01,  9.51200e-01, -2.32400e-01,  2.38400e-02,  5.06700e-03, -5.39700e-03,  2.16500e-04,  4.41200e-04],
                           [-7.66800e-01,  7.19400e-01,  5.60700e-02, -5.18900e-02,  5.37700e-03,  5.61000e-03, -2.17300e-03, -6.29600e-05],
                           [-4.69400e-01,  1.71000e-01,  9.16100e-02, -1.06300e-03, -1.28800e-02,  1.73900e-03,  1.86200e-03, -6.95400e-04],
                           [-1.75400e-01,  3.62900e-02,  3.18600e-02,  1.05500e-02, -3.79300e-03, -2.31600e-03,  7.87700e-04,  2.67600e-04],
                           [-9.33500e-02,  3.19200e-02,  4.88500e-03,  2.33500e-03,  2.37500e-03, -3.50900e-04, -5.63100e-04,  1.64700e-04],
                           [-1.87900e-02,  1.71000e-02,  1.68400e-03, -1.54700e-03,  8.96200e-04,  7.19300e-04, -2.73900e-04, -1.48100e-04],
                           [ 7.48900e-03, -9.73400e-04,  1.33600e-03,  3.19000e-04, -3.43900e-04,  7.07900e-05,  1.24200e-04, -5.01000e-05],
                           [-2.51200e-02, -7.66700e-03,  7.02800e-04,  1.68200e-03,  3.58100e-06, -2.56100e-04,  7.43700e-05,  6.32200e-05],
                           [ 1.97300e-02, -5.39300e-03, -1.27400e-03,  6.06700e-04,  1.94000e-04, -1.97200e-04, -5.55300e-05,  4.17100e-05],
                           [-1.39800e-02, -1.65600e-03,  1.78200e-05,  2.84400e-04,  1.73700e-04,  7.06700e-05, -1.19700e-05, -1.21900e-05]])
#  aQOOHb(+M) <=> aQOOHg(+M)                           1.000e+00 0.000     0.000
#      TCHEB/ 180.000   1500.000 /
#      PCHEB/ 0.010     98.692   /
#      CHEB/ 10 8/
#      CHEB/ -5.293e+00   -1.885e-01   -4.717e-01   3.702e-02    1.243e-02   /
#      CHEB/ -4.028e-03   -1.151e-04   5.547e-04    7.835e+00    1.980e+00   /
#      CHEB/ -2.630e-01   -5.952e-02   1.343e-02    3.985e-03    -1.092e-03  /
#      CHEB/ -7.089e-05   1.126e-01    6.623e-01    7.927e-02    -4.665e-02  /
#      CHEB/ -9.655e-03   1.983e-03    1.880e-03    6.153e-05    -3.579e-01  /
#      CHEB/ 1.731e-01    1.028e-01    -1.561e-02   -7.308e-03   -1.133e-03  /
#      CHEB/ 1.661e-04    7.536e-04    -1.510e-01   5.459e-02    5.103e-02   /
#      CHEB/ -2.494e-04   -3.896e-03   3.866e-04    -8.248e-04   -7.805e-05  /
#      CHEB/ -6.701e-02   3.882e-02    1.192e-02    3.162e-03    -1.343e-03  /
#      CHEB/ 4.944e-04    -1.346e-04   -4.642e-04   -3.935e-02   2.347e-02   /
#      CHEB/ 1.648e-03    8.917e-04    3.673e-05    1.191e-04    1.589e-04   /
#      CHEB/ -1.787e-04   -2.381e-02   7.328e-03    1.657e-03    1.161e-04   /
#      CHEB/ -1.021e-04   -3.713e-05   1.342e-04    2.717e-05    -7.569e-03  /
#      CHEB/ 7.448e-05    1.462e-03    5.554e-04    -2.250e-04   -2.025e-04  /
#      CHEB/ 9.347e-05    6.651e-05    -2.319e-03   -4.549e-04   6.542e-04   /
#      CHEB/ 5.389e-04    2.400e-06    -2.120e-04   9.252e-06    5.592e-05   /
#  aQOOH[O](+M) <=> aQOOHg(+M)                         1.000e+00 0.000     0.000
#      TCHEB/ 180.000   1500.000 /
#      PCHEB/ 0.010     98.692   /
#      CHEB/ 10 8/
#      CHEB/ 3.434e+00    7.385e-01    -2.332e-01   2.037e-02    -1.812e-03  /
#      CHEB/ -3.450e-03   -4.192e-04   3.513e-04    2.632e+00    1.252e+00   /
#      CHEB/ -2.251e-01   3.150e-02    1.856e-02    -3.051e-03   -4.641e-04  /
#      CHEB/ 4.955e-04    -3.268e-01   5.869e-01    -3.091e-02   -3.243e-02  /
#      CHEB/ 1.065e-02    5.678e-04    -1.013e-03   2.938e-04    -3.224e-01  /
#      CHEB/ 1.991e-01    6.457e-02    -3.034e-02   -1.814e-03   3.170e-03   /
#      CHEB/ -7.048e-04   -2.957e-04   -1.707e-01   7.060e-02    5.395e-02   /
#      CHEB/ -6.223e-03   -5.527e-03   2.357e-03    2.998e-04    -4.818e-04  /