units(length='cm', time='s', quantity='mol', act_energy='kcal/mol')

ideal_gas(name='gas',
          elements="H D T C Ci O Oi N Ne Ar He Si S F Cl Br I X",
          species="""aOOHbalkene      OH               ibutanal
                     aR               performic_acid   disub_c4ether
                     aQOOHb           H                aadduct
                     trisub_epoxy     ibutenol         aQOOH[O]
                     ipropyl          aRO2             O2
                     formic_acid      propene          aQOOHg
                     ibut_peroxyacid  HO2              CH3""",
          reactions='all',
          initial_state=state(temperature=300.0, pressure=OneAtm))

#-------------------------------------------------------------------------------
# Element data
#-------------------------------------------------------------------------------

element(symbol='Ci', atomic_mass=13.003)
element(symbol='D', atomic_mass=2.014)
element(symbol='Oi', atomic_mass=18.0)
element(symbol='T', atomic_mass=3.016)
element(symbol='X', atomic_mass=195.083)
#-------------------------------------------------------------------------------
# Species data
#-------------------------------------------------------------------------------

species(name='aOOHbalkene',
        atoms='C:3 H:6 O:3',
        thermo=(NASA([10.00, 497.41],
                     [ 3.76691735E+00,  1.51417956E-02,  1.85499431E-04,
                      -4.61303214E-07,  3.27678941E-10, -3.09077792E+04,
                       1.09903968E+01]),
                NASA([497.41, 3000.00],
                     [ 6.20882781E+00,  4.08866173E-02, -2.89934946E-05,
                       9.60428979E-09, -1.19355432E-12, -3.17121085E+04,
                      -4.72842811E+00])))

species(name='OH',
        atoms='H:1 O:1',
        thermo=(NASA([10.00, 984.14],
                     [ 3.49686242E+00,  1.83973160E-04, -9.97634499E-07,
                       1.56942783E-09, -6.10128175E-13,  3.41673934E+03,
                       1.48093120E+00]),
                NASA([984.14, 3000.00],
                     [ 3.45221464E+00, -2.95124034E-04,  7.39418622E-07,
                      -2.89309866E-10,  3.53041498E-14,  3.45751599E+03,
                       1.85813897E+00])))

species(name='ibutanal',
        atoms='C:4 H:8 O:1',
        thermo=(NASA([10.00, 683.88],
                     [ 3.57157346E+00,  3.36936906E-02, -1.78475021E-05,
                       1.31946716E-08, -7.58008388E-12, -2.54752080E+04,
                       1.05595084E+01]),
                NASA([683.88, 3000.00],
                     [ 1.29043622E+00,  4.14804229E-02, -2.27411206E-05,
                       6.08619500E-09, -6.38995128E-13, -2.50332889E+04,
                       2.16477430E+01])))

species(name='aR',
        atoms='C:4 H:9 O:1',
        thermo=(NASA([10.00, 455.22],
                     [ 3.59625500E+00,  3.38947981E-02,  7.37257079E-06,
                      -3.99275335E-08,  2.49019944E-11, -1.16762550E+04,
                       1.18269265E+01]),
                NASA([455.22, 3000.00],
                     [ 2.49586309E+00,  4.35639890E-02, -2.44887770E-05,
                       6.73363769E-09, -7.23862433E-13, -1.15760718E+04,
                       1.62696907E+01])))

species(name='performic_acid',
        atoms='C:1 H:2 O:3',
        thermo=(NASA([10.00, 590.95],
                     [ 3.92633851E+00,  4.24517168E-03,  6.71106764E-05,
                      -1.36545385E-07,  8.03337864E-11, -3.63028176E+04,
                       8.06485813E+00]),
                NASA([590.95, 3000.00],
                     [ 4.39992934E+00,  1.85411415E-02, -1.36005501E-05,
                       4.62292431E-09, -5.88463603E-13, -3.66643888E+04,
                       3.44353230E+00])))

species(name='disub_c4ether',
        atoms='C:4 H:8 O:2',
        thermo=(NASA([10.00, 413.50],
                     [ 3.78241323E+00,  1.89501763E-02,  8.65302396E-05,
                      -1.80580575E-07,  1.13656264E-10, -4.01306245E+04,
                       1.09982450E+01]),
                NASA([413.50, 3000.00],
                     [ 4.29420885E-01,  5.13851903E-02, -3.11292293E-05,
                       9.11498284E-09, -1.03192718E-12, -3.98533301E+04,
                       2.42134976E+01])))

species(name='aQOOHb',
        atoms='C:4 H:9 O:3',
        thermo=(NASA([10.00, 412.78],
                     [ 3.15498836E+00,  8.55068303E-02, -2.35307993E-04,
                       4.71983261E-07, -3.62709267E-10, -2.94231008E+04,
                       1.52522123E+01]),
                NASA([412.78, 3000.00],
                     [ 4.18099845E+00,  5.26168288E-02, -3.23998410E-05,
                       9.59389339E-09, -1.09464519E-12, -2.93123059E+04,
                       1.35782328E+01])))

species(name='H',
        atoms='H:1',
        thermo=(NASA([10.00, 794.01],
                     [ 2.50000000E+00,  1.99051163E-15, -1.19089508E-17,
                       2.10805655E-20, -1.11017699E-23,  2.54725594E+04,
                      -4.61279342E-01]),
                NASA([794.01, 3000.00],
                     [ 2.50000000E+00,  1.52667235E-14, -1.58445285E-17,
                       6.63088600E-21, -9.62111674E-25,  2.54725594E+04,
                      -4.61279342E-01])))

species(name='aadduct',
        atoms='C:4 H:9 O:3',
        thermo=(NASA([10.00, 449.84],
                     [ 3.06901904E+00,  9.20724491E-02, -2.68085092E-04,
                       5.15249897E-07, -3.68046586E-10, -3.18741141E+04,
                       1.46591735E+01]),
                NASA([449.84, 3000.00],
                     [ 4.11210745E+00,  5.16955724E-02, -2.97401041E-05,
                       8.32758939E-09, -9.08861448E-13, -3.16532731E+04,
                       1.39578825E+01])))

species(name='trisub_epoxy',
        atoms='C:4 H:8 O:2',
        thermo=(NASA([10.00, 209.19],
                     [ 3.75295042E+00,  2.37546930E-02,  1.26610110E-04,
                      -4.78364365E-07,  5.79468168E-10, -4.17801623E+04,
                       1.12739684E+01]),
                NASA([209.19, 3000.00],
                     [ 2.64185254E+00,  4.50006531E-02, -2.57361066E-05,
                       7.15266054E-09, -7.72980731E-13, -4.17336767E+04,
                       1.48960343E+01])))

species(name='ibutenol',
        atoms='C:4 H:8 O:1',
        thermo=(NASA([10.00, 135.97],
                     [ 3.95714996E+00,  5.72646980E-03,  4.63611760E-04,
                      -3.04137514E-06,  6.85019471E-09, -2.41448202E+04,
                       8.21931848E+00]),
                NASA([135.97, 3000.00],
                     [ 3.32467612E+00,  3.69033556E-02, -1.89960416E-05,
                       4.73417677E-09, -4.59705291E-13, -2.41392416E+04,
                       9.58133237E+00])))

species(name='aQOOH[O]',
        atoms='C:4 H:9 O:3',
        thermo=(NASA([10.00, 488.36],
                     [ 3.54559533E+00,  3.89536133E-02,  8.47689703E-05,
                      -2.45147486E-07,  1.76157259E-10, -2.41873781E+04,
                       1.34685910E+01]),
                NASA([488.36, 3000.00],
                     [ 3.94214913E+00,  5.71928314E-02, -3.72516212E-05,
                       1.15209013E-08, -1.35808341E-12, -2.44823390E+04,
                       9.21628964E+00])))

species(name='ipropyl',
        atoms='C:3 H:7',
        thermo=(NASA([10.00, 421.76],
                     [ 3.73943775E+00,  3.10070157E-02, -1.51196908E-04,
                       4.35367329E-07, -3.85565052E-10,  9.49213457E+03,
                       7.79448918E+00]),
                NASA([421.76, 3000.00],
                     [-4.74526725E-01,  3.20862468E-02, -1.67340747E-05,
                       4.21365136E-09, -4.13155573E-13,  1.01934458E+04,
                       2.85865912E+01])))

species(name='aRO2',
        atoms='C:4 H:9 O:3',
        thermo=(NASA([10.00, 670.36],
                     [ 3.45405325E+00,  4.74751311E-02,  9.77507759E-06,
                      -6.31019603E-08,  3.75500067E-11, -3.28848318E+04,
                       1.39284976E+01]),
                NASA([670.36, 3000.00],
                     [ 5.04137652E+00,  5.19952978E-02, -3.16472789E-05,
                       9.22798587E-09, -1.03598915E-12, -3.34120243E+04,
                       4.56056770E+00])))

species(name='O2',
        atoms='O:2',
        thermo=(NASA([10.00, 605.96],
                     [ 3.50743498E+00, -4.43860349E-04,  1.45938058E-06,
                       1.61509333E-09, -2.32050052E-12, -9.24756224E+02,
                       4.72183634E+00]),
                NASA([605.96, 3000.00],
                     [ 2.87462882E+00,  2.17840991E-03, -1.18262921E-06,
                       2.86910493E-10, -2.53297146E-14, -8.19517838E+02,
                       7.69331810E+00])))

species(name='formic_acid',
        atoms='C:1 H:2 O:2',
        thermo=(NASA([10.00, 741.38],
                     [ 4.06855785E+00, -4.74562133E-03,  4.71797900E-05,
                      -6.07490052E-08,  2.51286794E-11, -4.66880837E+04,
                       6.53681035E+00]),
                NASA([741.38, 3000.00],
                     [ 1.13645847E+00,  1.74953124E-02, -1.08112403E-05,
                       3.08075326E-09, -3.34892658E-13, -4.64297918E+04,
                       1.86149484E+01])))

species(name='propene',
        atoms='C:3 H:6',
        thermo=(NASA([10.00, 519.53],
                     [ 3.98723879E+00,  4.72040503E-04,  6.51776229E-05,
                      -9.89891002E-08,  4.91141123E-11, -1.66030914E+02,
                       6.98071210E+00]),
                NASA([519.53, 3000.00],
                     [ 3.79893331E-01,  2.82457690E-02, -1.50108430E-05,
                       3.90894069E-09, -4.00521928E-13,  2.08796433E+02,
                       2.20218922E+01])))

species(name='aQOOHg',
        atoms='C:4 H:9 O:3',
        thermo=(NASA([10.00, 455.48],
                     [ 3.62522127E+00,  2.83222320E-02,  2.08527447E-04,
                      -5.67427418E-07,  4.35169138E-10, -2.54658157E+04,
                       1.26617758E+01]),
                NASA([455.48, 3000.00],
                     [ 5.13914202E+00,  5.96270859E-02, -4.14435328E-05,
                       1.34202375E-08, -1.63474553E-12, -2.60663720E+04,
                       1.46991116E+00])))

species(name='ibut_peroxyacid',
        atoms='C:4 H:8 O:3',
        thermo=(NASA([10.00, 1386.21],
                     [ 3.50995385E+00,  4.78670384E-02, -2.40781384E-05,
                       3.71046938E-09,  3.85442115E-13, -4.74842773E+04,
                       1.22017268E+01]),
                NASA([1386.21, 3000.00],
                     [ 1.24543146E+01,  3.02396862E-02, -1.38577031E-05,
                       3.05328904E-09, -2.63982457E-13, -5.07501606E+04,
                      -3.67061828E+01])))

species(name='HO2',
        atoms='H:1 O:2',
        thermo=(NASA([10.00, 891.11],
                     [ 4.02887004E+00, -1.75769289E-03,  1.08726004E-05,
                      -1.13812972E-08,  3.90113097E-12,  4.95165001E+02,
                       4.69302008E+00]),
                NASA([891.11, 3000.00],
                     [ 3.06571044E+00,  4.28505005E-03, -2.19325920E-06,
                       5.58882699E-10, -5.61246669E-14,  5.98557610E+02,
                       8.84564156E+00])))

species(name='CH3',
        atoms='C:1 H:3',
        thermo=(NASA([10.00, 616.77],
                     [ 3.98929952E+00,  5.45150461E-04,  9.01320092E-06,
                      -1.08320497E-08,  4.38985879E-12,  1.65859883E+04,
                       2.22446886E-01]),
                NASA([616.77, 3000.00],
                     [ 3.35928237E+00,  4.63117126E-03, -9.24365433E-07,
                      -9.02514624E-11,  3.56905106E-14,  1.66637014E+04,
                       2.95743732E+00])))

#-------------------------------------------------------------------------------
# Reaction data
#-------------------------------------------------------------------------------

# Reaction 1
chebyshev_reaction('aQOOH[O] (+ M) <=> aQOOHb (+ M)',
                   Tmin=180.0, Tmax=1500.0,
                   Pmin=(0.01, 'atm'), Pmax=(98.692, 'atm'),
                   coeffs=[[-9.89200e+00,  5.17700e+00, -4.60500e-01, -4.59200e-02, -1.22300e-02, -3.91400e-03,  1.21400e-02, -5.46800e-04],
                           [-1.90100e+00,  8.49600e-01,  7.22400e-01, -1.23500e-01,  9.85800e-03,  3.65800e-02, -1.68700e-02, -6.97000e-03],
                           [-2.92200e+00, -8.64600e-01,  3.38900e-02,  1.33000e-01, -8.26600e-03, -3.16000e-02,  2.60800e-03,  1.11500e-02],
                           [-1.44900e+00, -5.06400e-01, -5.98900e-02,  2.79100e-02, -2.89200e-02, -5.91900e-03,  1.36900e-02, -3.12800e-04],
                           [-5.80300e-01, -1.47800e-01, -5.01100e-02, -2.44800e-02, -3.72700e-03,  8.56400e-03, -1.55300e-03, -4.66000e-03],
                           [-1.97100e-01,  2.87000e-02, -2.68900e-02, -1.99600e-02,  5.02600e-03,  1.07300e-03, -4.59700e-03,  1.10700e-03],
                           [-6.52600e-02,  7.22300e-02, -3.54200e-03,  1.23000e-03,  1.40700e-03, -5.63900e-03, -7.91200e-04,  2.73000e-03],
                           [-6.03300e-02,  9.00800e-02, -5.81100e-03,  6.36000e-03,  8.92500e-04, -2.88700e-03,  1.09700e-03, -1.34900e-05],
                           [ 1.72900e-02, -5.25100e-02,  2.46000e-02,  9.19100e-03, -1.44400e-03, -9.84000e-05,  2.59100e-04, -7.45700e-04],
                           [-3.39000e-02,  1.26300e-02, -7.98200e-03,  1.04000e-03,  2.37300e-03,  2.08200e-03, -3.39200e-04, -6.04800e-04]])

# Reaction 2
chebyshev_reaction('aQOOHg (+ M) <=> aQOOHb (+ M)',
                   Tmin=180.0, Tmax=1500.0,
                   Pmin=(0.01, 'atm'), Pmax=(98.692, 'atm'),
                   coeffs=[[-1.01900e+01,  4.18700e+00, -5.20000e-01, -6.97700e-02,  2.47700e-02, -5.90300e-03,  1.73800e-03,  5.19600e-05],
                           [ 7.05900e-01,  1.41900e+00,  8.75500e-01, -1.03100e-01, -7.21200e-02,  2.29000e-02,  1.33000e-03, -1.33400e-03],
                           [-2.86300e+00, -4.82500e-01,  1.78500e-01,  1.93100e-01, -1.08200e-02, -2.61100e-02,  1.78200e-03,  2.75100e-03],
                           [-1.90100e+00, -7.37900e-01, -1.01800e-01,  9.06600e-02,  2.82600e-02, -5.00100e-03, -2.10000e-03, -5.24900e-04],
                           [-9.56100e-01, -3.50300e-01, -1.66100e-01, -1.30000e-02,  2.33900e-02,  5.71100e-03, -1.54100e-03, -2.33500e-04],
                           [-3.07700e-01, -1.28500e-01, -9.11900e-02, -3.41000e-02, -2.00300e-04,  3.95600e-03,  6.14600e-04,  2.46900e-04],
                           [-7.38500e-02,  5.45800e-02, -3.51100e-02, -2.24400e-02, -5.90000e-03, -9.98500e-04,  5.87200e-04,  5.15300e-04],
                           [ 2.32700e-02,  7.71000e-02,  1.50700e-02, -6.43400e-03, -5.92600e-03, -1.39800e-03, -5.47900e-05, -7.99600e-05],
                           [ 1.82100e-02,  4.64400e-02,  2.92600e-02,  4.27700e-03, -2.12400e-03, -5.94400e-04, -4.10600e-04, -2.81000e-04],
                           [-1.43100e-02,  2.91500e-02,  1.08000e-02,  7.35400e-03,  2.97800e-03, -7.23000e-04, -3.85300e-04,  1.09700e-04]])

# Reaction 3
chebyshev_reaction('aRO2 (+ M) <=> aQOOHb (+ M)',
                   Tmin=180.0, Tmax=1500.0,
                   Pmin=(0.01, 'atm'), Pmax=(98.692, 'atm'),
                   coeffs=[[-1.01100e+01,  8.30100e-01,  3.09200e-01,  1.50800e-01,  3.10400e-02, -4.45900e-03, -1.08700e-02, -6.56400e-03],
                           [ 1.28200e-01,  1.26500e+00,  2.75800e-01,  3.53800e-02, -6.02700e-03,  1.34800e-02,  1.64900e-02,  6.02700e-03],
                           [-3.81300e+00,  4.56400e-01,  2.55500e-01,  4.22400e-02, -1.96000e-02, -1.66900e-02, -8.41800e-03, -2.22700e-03],
                           [-1.75500e+00, -2.77200e-02,  1.47700e-02, -1.85800e-02, -1.57000e-02, -1.43900e-03,  8.00600e-04, -1.44900e-03],
                           [-5.47900e-01, -4.84400e-02, -8.96400e-02, -6.64900e-02, -2.22700e-02,  3.81200e-03,  6.73500e-03,  2.44900e-03],
                           [-9.34000e-02,  4.55200e-02, -4.32800e-02, -5.16300e-02, -1.91000e-02,  3.30500e-04,  2.63000e-03,  1.27000e-03],
                           [-5.23800e-02,  5.46000e-02,  2.75000e-03, -1.32000e-02, -7.77800e-04,  4.35600e-03,  4.74500e-04, -1.95600e-03],
                           [-4.64400e-02,  1.98300e-02,  6.66900e-03,  3.91800e-03,  8.16100e-03,  6.43700e-03,  9.13000e-04, -1.62400e-03],
                           [-2.36200e-02, -6.72300e-03, -1.35400e-03,  5.35400e-03,  7.19600e-03,  3.37200e-03, -6.19100e-04, -1.20900e-03],
                           [ 5.57800e-03, -1.18300e-02, -3.78400e-03,  3.50900e-03,  3.96800e-03,  1.46100e-04, -2.12500e-03, -1.19900e-03]])

# Reaction 4
chebyshev_reaction('aadduct (+ M) <=> aQOOHb (+ M)',
                   Tmin=180.0, Tmax=1500.0,
                   Pmin=(0.01, 'atm'), Pmax=(98.692, 'atm'),
                   coeffs=[[-1.03800e+01,  7.93000e-01,  1.01600e-01,  4.96900e-02,  1.15600e-04, -2.56800e-03, -1.72300e-04,  9.64500e-05],
                           [-2.66900e+00,  9.35700e-01,  3.09700e-01,  1.20100e-01,  2.72600e-02,  3.98900e-03, -4.24200e-04, -1.57200e-03],
                           [-4.44800e+00,  8.34000e-02,  9.86800e-02,  2.31600e-02, -4.23900e-03, -1.55100e-03,  1.23600e-03,  7.08900e-04],
                           [-1.93000e+00, -1.05300e-01, -3.02700e-02, -1.54400e-02, -1.42100e-02, -4.31500e-03,  6.31900e-04,  6.01800e-04],
                           [-5.75500e-01,  3.63800e-04, -4.43700e-02, -2.51800e-02, -1.32900e-02, -3.75300e-03,  3.46400e-04,  5.50900e-04],
                           [-1.20700e-01,  6.07500e-02, -1.38800e-02, -2.09700e-02, -1.01900e-02, -1.85500e-03,  7.35200e-04,  5.38500e-04],
                           [-1.11000e-01,  6.28300e-02,  1.04600e-02, -8.26100e-03, -6.28100e-03, -1.04400e-03,  6.72600e-04,  3.40200e-04],
                           [-1.11500e-01,  4.14500e-02,  1.47700e-02,  1.28700e-03, -1.95100e-03, -4.84600e-04,  3.90800e-04,  1.18200e-04],
                           [-5.19100e-02,  1.42900e-02,  7.19200e-03,  3.67700e-03,  1.23300e-03,  4.52300e-04,  2.42000e-04, -7.96200e-05],
                           [ 1.59700e-02, -6.84100e-03, -2.00400e-03,  7.68800e-04,  1.85300e-03,  1.26300e-03,  4.28600e-04, -8.15800e-05]])

# Reaction 5
chebyshev_reaction('O2 + aR (+ M) <=> aQOOHb (+ M)',
                   Tmin=180.0, Tmax=1500.0,
                   Pmin=(0.01, 'atm'), Pmax=(98.692, 'atm'),
                   coeffs=[[-1.07700e+00,  9.21900e+00, -6.67900e-01, -6.69300e-01,  1.96900e-02,  1.06200e-01,  2.88000e-03, -2.18100e-02],
                           [-5.44600e-01, -4.00000e+00,  1.80400e+00,  5.30500e-01, -2.14100e-01, -1.26200e-01,  2.66100e-02,  2.79100e-02],
                           [-1.37600e+00, -8.08000e-01, -2.27500e-02,  2.31500e-01,  7.32200e-02, -2.96100e-02, -2.53900e-02,  3.53700e-03],
                           [-8.08400e-01, -4.47200e-01, -1.79800e-01,  4.65800e-02,  4.90800e-02,  7.97500e-03, -8.23200e-03, -3.18200e-03],
                           [-3.79300e-01, -1.59900e-01, -1.47500e-01, -1.37700e-02,  1.49300e-02,  6.56200e-03,  1.83500e-03, -1.92500e-03],
                           [-1.14200e-01, -1.94300e-02, -5.78800e-02, -2.33000e-02, -2.75400e-03,  2.52400e-03,  2.34400e-03, -7.92300e-04],
                           [-1.74000e-02,  3.44400e-02, -2.32600e-03, -1.06100e-02, -5.51200e-03,  2.00300e-04, -4.69000e-05,  1.93600e-04],
                           [ 1.35700e-02,  1.76700e-02,  2.57700e-02, -3.23900e-03, -8.08500e-04, -2.62300e-04, -1.23400e-03,  3.36100e-04],
                           [-6.00200e-03,  8.74800e-03,  1.18900e-02,  3.34500e-03,  2.89400e-03, -3.44500e-04, -6.44700e-04,  3.58200e-05],
                           [-1.69300e-02,  4.57700e-03, -7.00200e-03,  4.72800e-03,  2.11100e-03,  3.62900e-04,  2.58500e-04, -2.03000e-04]])
#  aQOOHb(+M) <=> aQOOH[O](+M)                         1.000e+00 0.000     0.000
#      TCHEB/ 180.000   1500.000 /
#      PCHEB/ 0.010     98.692   /
#      CHEB/ 10 8/
#      CHEB/ -1.846e+01   5.177e+00    -4.605e-01   -4.592e-02   -1.223e-02  /
#      CHEB/ -3.914e-03   1.214e-02    -5.468e-04   3.479e+00    8.496e-01   /
#      CHEB/ 7.224e-01    -1.235e-01   9.858e-03    3.658e-02    -1.687e-02  /
#      CHEB/ -6.970e-03   -2.844e+00   -8.646e-01   3.389e-02    1.330e-01   /
#      CHEB/ -8.266e-03   -3.160e-02   2.608e-03    1.115e-02    -1.403e+00  /
#      CHEB/ -5.064e-01   -5.989e-02   2.791e-02    -2.892e-02   -5.919e-03  /
#      CHEB/ 1.369e-02    -3.128e-04   -5.649e-01   -1.478e-01   -5.011e-02  /
#      CHEB/ -2.448e-02   -3.727e-03   8.564e-03    -1.553e-03   -4.660e-03  /
#      CHEB/ -1.923e-01   2.870e-02    -2.689e-02   -1.996e-02   5.026e-03   /
#      CHEB/ 1.073e-03    -4.597e-03   1.107e-03    -6.345e-02   7.223e-02   /
#      CHEB/ -3.542e-03   1.230e-03    1.407e-03    -5.639e-03   -7.912e-04  /
#      CHEB/ 2.730e-03    -5.961e-02   9.008e-02    -5.811e-03   6.360e-03   /
#      CHEB/ 8.925e-04    -2.887e-03   1.097e-03    -1.349e-05   1.749e-02   /
#      CHEB/ -5.251e-02   2.460e-02    9.191e-03    -1.444e-03   -9.840e-05  /
#      CHEB/ 2.591e-04    -7.457e-04   -3.390e-02   1.263e-02    -7.982e-03  /
#      CHEB/ 1.040e-03    2.373e-03    2.082e-03    -3.392e-04   -6.048e-04  /

# Reaction 6
chebyshev_reaction('aQOOHg (+ M) <=> aQOOH[O] (+ M)',
                   Tmin=180.0, Tmax=1500.0,
                   Pmin=(0.01, 'atm'), Pmax=(98.692, 'atm'),
                   coeffs=[[-3.34500e+00,  1.54700e+00, -7.48100e-02,  3.39800e-02, -5.50300e-03,  3.03500e-04,  3.13500e-04, -3.22800e-04],
                           [-2.41900e+00,  1.04400e+00,  2.05000e-01, -8.99100e-03,  5.14100e-03, -5.01500e-04, -5.08800e-04,  1.34000e-04],
                           [-3.54300e+00,  9.29000e-02, -3.77200e-02,  1.29200e-03,  7.64000e-03,  1.37200e-03, -4.20100e-04,  3.93800e-05],
                           [-1.80900e+00, -1.28900e-01, -1.05400e-01, -1.88200e-02,  3.90100e-03,  1.12700e-03,  9.83700e-05,  1.51600e-04],
                           [-8.77700e-01, -1.74000e-02, -9.19700e-02, -7.99500e-03,  5.01300e-04, -9.23300e-04,  4.12600e-04,  1.21200e-05],
                           [-2.92200e-01, -3.32100e-02, -1.88300e-02, -7.63100e-03,  1.09700e-04, -1.15000e-04, -1.48200e-04,  9.29000e-05],
                           [-1.36000e-01,  5.34900e-02, -1.67100e-02, -1.37500e-03, -1.82100e-03, -3.25500e-04,  2.53700e-04, -1.67000e-05],
                           [-1.46200e-02,  2.40500e-02,  1.46800e-02, -2.96900e-03, -3.15300e-03, -3.94800e-04,  1.27100e-06,  8.76800e-05],
                           [ 1.41100e-02,  1.04200e-02,  2.34000e-02,  1.40000e-03, -2.17500e-03, -7.76000e-04, -1.55900e-04,  6.99000e-05],
                           [-3.50800e-02,  4.86100e-02, -2.12200e-04,  9.24300e-03,  2.68400e-04, -1.11000e-03,  1.03100e-04, -1.09900e-04]])

# Reaction 7
chebyshev_reaction('aRO2 (+ M) <=> aQOOH[O] (+ M)',
                   Tmin=180.0, Tmax=1500.0,
                   Pmin=(0.01, 'atm'), Pmax=(98.692, 'atm'),
                   coeffs=[[-1.89500e+01,  6.81600e+00,  9.94900e-01,  2.54200e-01, -1.35400e-02, -1.64100e-01, -8.83400e-02,  2.92000e-02],
                           [ 9.07700e+00, -1.60500e+00, -5.08700e-01, -1.14400e-01, -3.05600e-02,  1.50000e-01,  9.31400e-02, -3.56200e-02],
                           [-3.90200e+00, -1.78200e-01,  3.83300e-02, -6.99300e-02,  3.56200e-02, -4.24800e-03, -1.52500e-02,  6.77800e-03],
                           [-1.58500e+00, -9.10500e-02, -1.14100e-01,  2.79100e-02, -2.71600e-02, -1.13500e-02,  7.31900e-03, -2.97000e-03],
                           [-4.77300e-01,  6.95500e-03, -2.88700e-02, -5.99600e-02, -9.82400e-03,  3.22300e-03, -6.36200e-03,  7.75900e-03],
                           [-2.05800e-02, -4.35900e-02, -3.11300e-02, -1.17100e-02, -3.06400e-03, -5.77500e-03,  8.73200e-03, -8.72100e-04],
                           [-1.19200e-01,  2.06900e-02, -3.66100e-03,  2.82500e-03,  5.86700e-04,  1.19100e-02, -8.65400e-04, -8.81500e-05],
                           [-6.59800e-02, -4.41100e-02, -3.97400e-03,  3.03000e-03,  1.34900e-02,  1.34600e-03,  2.26700e-03, -2.28500e-04],
                           [-1.19200e-02, -5.02600e-02, -7.18500e-03,  7.60200e-03,  2.20600e-03,  4.13200e-03, -8.88000e-04, -3.24700e-03],
                           [-2.00900e-03,  1.78500e-03, -5.21400e-03,  3.85700e-03,  4.69500e-03, -2.98900e-03, -3.15700e-03,  3.25600e-04]])

# Reaction 8
chebyshev_reaction('aadduct (+ M) <=> aQOOH[O] (+ M)',
                   Tmin=180.0, Tmax=1500.0,
                   Pmin=(0.01, 'atm'), Pmax=(98.692, 'atm'),
                   coeffs=[[-1.91500e+01,  6.94800e+00,  8.89800e-01,  1.85300e-01, -4.75000e-02, -1.80000e-01, -9.54700e-02,  2.69000e-02],
                           [ 6.12800e+00, -2.11500e+00, -6.12500e-01, -1.05900e-01,  5.45300e-03,  1.77400e-01,  1.06400e-01, -3.21300e-02],
                           [-4.52800e+00, -4.52500e-01, -7.24400e-02, -9.18000e-02,  4.30700e-02,  2.91100e-03, -1.32300e-02,  6.52500e-03],
                           [-1.77900e+00, -1.19800e-01, -1.38500e-01,  2.84200e-02, -2.21800e-02, -1.08700e-02,  4.89000e-03, -4.95100e-03],
                           [-5.45900e-01,  5.88300e-02,  8.64600e-03, -2.98200e-02,  3.89000e-03,  4.20700e-03, -9.65600e-03,  5.13100e-03],
                           [-7.17600e-02, -5.56300e-03,  1.49800e-03,  1.03700e-02,  4.09600e-03, -7.47500e-03,  5.88700e-03, -1.92500e-03],
                           [-1.94000e-01,  5.46700e-02,  1.14300e-02,  4.88200e-03, -4.79000e-03,  6.16700e-03, -3.24300e-03,  3.63400e-04],
                           [-1.45900e-01, -6.46900e-03,  5.78000e-03, -2.74300e-03,  4.40000e-03, -4.06100e-03,  1.40100e-03,  9.98200e-04],
                           [-5.14100e-02, -1.91900e-02, -6.87100e-04,  1.93300e-03, -3.62200e-03,  2.55800e-03,  4.24500e-04, -1.70800e-03],
                           [ 3.47700e-03,  1.65500e-02, -4.85100e-03, -1.96800e-03,  1.92000e-03, -1.70500e-03, -7.56600e-04,  1.64100e-03]])

# Reaction 9
chebyshev_reaction('O2 + aR (+ M) <=> aQOOH[O] (+ M)',
                   Tmin=180.0, Tmax=1500.0,
                   Pmin=(0.01, 'atm'), Pmax=(98.692, 'atm'),
                   coeffs=[[-7.64900e-01,  5.19000e+00,  2.27900e-02,  6.80100e-01,  1.28200e-01, -1.36100e-01, -7.41100e-02, -3.12400e-02],
                           [-5.43400e-01, -2.81100e+00,  5.37900e-01, -8.57700e-01, -9.61600e-02,  1.47300e-01,  9.37300e-02,  5.52700e-02],
                           [-8.07300e-01, -6.19100e-01, -4.33900e-01,  2.10000e-01, -7.09300e-02,  5.55800e-02, -1.79700e-02, -3.09600e-02],
                           [-6.76400e-01,  1.36400e-01, -2.12100e-01,  8.17700e-02,  3.78400e-02, -7.68900e-02,  7.70000e-03, -4.02000e-03],
                           [-3.73400e-01,  1.62700e-01,  7.03100e-02, -1.03400e-01,  5.40400e-02, -2.27000e-02, -4.95600e-03,  1.79900e-02],
                           [-1.11400e-01, -9.71400e-03,  8.67000e-02, -2.77200e-02, -3.61700e-02,  5.10500e-02, -2.01900e-02,  3.26900e-03],
                           [-4.51600e-02,  2.05700e-02, -1.66500e-02,  4.34600e-02, -3.04000e-02,  4.36400e-03,  1.60700e-02, -1.81500e-02],
                           [-1.73400e-02,  2.61100e-03, -2.08000e-02,  1.09100e-02,  1.86500e-02, -2.92400e-02,  1.45600e-02, -3.67100e-04],
                           [-1.94600e-02, -1.01300e-02,  4.87100e-03, -1.21100e-02,  1.26800e-02,  1.38800e-03, -1.50400e-02,  1.54100e-02],
                           [-2.73900e-02,  1.79300e-02,  9.35300e-03, -1.10900e-02, -4.22000e-03,  1.12200e-02, -7.31100e-03, -1.50700e-03]])
#  aQOOHb(+M) <=> aQOOHg(+M)                           1.000e+00 0.000     0.000
#      TCHEB/ 180.000   1500.000 /
#      PCHEB/ 0.010     98.692   /
#      CHEB/ 10 8/
#      CHEB/ -1.723e+01   4.187e+00    -5.200e-01   -6.977e-02   2.477e-02   /
#      CHEB/ -5.903e-03   1.738e-03    5.196e-05    5.033e+00    1.419e+00   /
#      CHEB/ 8.755e-01    -1.031e-01   -7.212e-02   2.290e-02    1.330e-03   /
#      CHEB/ -1.334e-03   -2.640e+00   -4.825e-01   1.785e-01    1.931e-01   /
#      CHEB/ -1.082e-02   -2.611e-02   1.782e-03    2.751e-03    -1.807e+00  /
#      CHEB/ -7.379e-01   -1.018e-01   9.066e-02    2.826e-02    -5.001e-03  /
#      CHEB/ -2.100e-03   -5.249e-04   -9.279e-01   -3.503e-01   -1.661e-01  /
#      CHEB/ -1.300e-02   2.339e-02    5.711e-03    -1.541e-03   -2.335e-04  /
#      CHEB/ -2.999e-01   -1.285e-01   -9.119e-02   -3.410e-02   -2.003e-04  /
#      CHEB/ 3.956e-03    6.146e-04    2.469e-04    -7.134e-02   5.458e-02   /
#      CHEB/ -3.511e-02   -2.244e-02   -5.900e-03   -9.985e-04   5.872e-04   /
#      CHEB/ 5.153e-04    2.400e-02    7.710e-02    1.507e-02    -6.434e-03  /
#      CHEB/ -5.926e-03   -1.398e-03   -5.479e-05   -7.996e-05   1.823e-02   /
#      CHEB/ 4.644e-02    2.926e-02    4.277e-03    -2.124e-03   -5.944e-04  /
#      CHEB/ -4.106e-04   -2.810e-04   -1.445e-02   2.915e-02    1.080e-02   /
#      CHEB/ 7.354e-03    2.978e-03    -7.230e-04   -3.853e-04   1.097e-04   /
#  aQOOH[O](+M) <=> aQOOHg(+M)                         1.000e+00 0.000     0.000
#      TCHEB/ 180.000   1500.000 /
#      PCHEB/ 0.010     98.692   /
#      CHEB/ 10 8/
#      CHEB/ -1.813e+00   1.547e+00    -7.481e-02   3.398e-02    -5.503e-03  /
#      CHEB/ 3.035e-04    3.135e-04    -3.228e-04   -3.472e+00   1.044e+00   /
#      CHEB/ 2.050e-01    -8.991e-03   5.141e-03    -5.015e-04   -5.088e-04  /
#      CHEB/ 1.340e-04    -3.398e+00   9.290e-02    -3.772e-02   1.292e-03   /
#      CHEB/ 7.640e-03    1.372e-03    -4.201e-04   3.938e-05    -1.761e+00  /
#      CHEB/ -1.289e-01   -1.054e-01   -1.882e-02   3.901e-03    1.127e-03   /
#      CHEB/ 9.837e-05    1.516e-04    -8.649e-01   -1.740e-02   -9.197e-02  /
#      CHEB/ -7.995e-03   5.013e-04    -9.233e-04   4.126e-04    1.212e-05   /