units(length='cm', time='s', quantity='mol', act_energy='kcal/mol')

ideal_gas(name='gas',
          elements="H D T C Ci O Oi N Ne Ar He Si S F Cl Br I X",
          species="""OH             bQOOH[O]       acetone
                     H2O            balkoxyketone  ibutenol
                     trisub_epoxy   bQOOHg         CH2O
                     galkene        O2             bR
                     bQOOHa         bRO2           disub_epoxy
                     HO2""",
          reactions='all',
          initial_state=state(temperature=300.0, pressure=OneAtm))

#-------------------------------------------------------------------------------
# Element data
#-------------------------------------------------------------------------------

element(symbol='Ci', atomic_mass=13.003)
element(symbol='D', atomic_mass=2.014)
element(symbol='Oi', atomic_mass=18.0)
element(symbol='T', atomic_mass=3.016)
element(symbol='X', atomic_mass=195.083)
#-------------------------------------------------------------------------------
# Species data
#-------------------------------------------------------------------------------

species(name='OH',
        atoms='H:1 O:1',
        thermo=(NASA([10.00, 984.14],
                     [ 3.49686242E+00,  1.83973160E-04, -9.97634499E-07,
                       1.56942783E-09, -6.10128175E-13,  3.41673934E+03,
                       1.48093120E+00]),
                NASA([984.14, 3000.00],
                     [ 3.45221464E+00, -2.95124034E-04,  7.39418622E-07,
                      -2.89309866E-10,  3.53041498E-14,  3.45751599E+03,
                       1.85813897E+00])))

species(name='bQOOH[O]',
        atoms='C:4 H:9 O:3',
        thermo=(NASA([10.00, 338.69],
                     [ 3.60915854E+00,  3.39069566E-02,  2.22227265E-04,
                      -8.23527342E-07,  8.56246333E-10, -2.27761882E+04,
                       1.23284605E+01]),
                NASA([338.69, 3000.00],
                     [ 5.03198881E+00,  5.46235886E-02, -3.56935806E-05,
                       1.12371751E-08, -1.35390171E-12, -2.30877709E+04,
                       3.82760723E+00])))

species(name='acetone',
        atoms='C:3 H:6 O:1',
        thermo=(NASA([10.00, 414.35],
                     [ 3.73496166E+00,  3.05743218E-02, -1.26253585E-04,
                       3.66080978E-07, -3.31430437E-10, -2.86458402E+04,
                       8.24936012E+00]),
                NASA([414.35, 3000.00],
                     [ 1.70010292E-01,  3.28431468E-02, -1.80960132E-05,
                       4.82960690E-09, -5.02388538E-13, -2.80744571E+04,
                       2.56372653E+01])))

species(name='H2O',
        atoms='H:2 O:1',
        thermo=(NASA([10.00, 773.84],
                     [ 4.00473541E+00, -2.39729134E-04,  8.11862955E-07,
                       1.47891862E-09, -1.19783539E-12, -3.03533807E+04,
                      -9.96254147E-02]),
                NASA([773.84, 3000.00],
                     [ 3.52133374E+00,  1.05377009E-03,  6.40722099E-07,
                      -3.86240235E-10,  5.49243294E-14, -3.02424794E+04,
                       2.34173094E+00])))

species(name='balkoxyketone',
        atoms='C:4 H:7 O:2',
        thermo=(NASA([10.00, 269.93],
                     [ 3.81931151E+00,  1.68519318E-02,  2.42742224E-04,
                      -9.64821161E-07,  1.18509335E-09, -1.80547073E+04,
                       1.20521854E+01]),
                NASA([269.93, 3000.00],
                     [ 3.57555944E+00,  4.28868089E-02, -2.65390705E-05,
                       7.99659117E-09, -9.32983470E-13, -1.81232354E+04,
                       1.13957990E+01])))

species(name='ibutenol',
        atoms='C:4 H:8 O:1',
        thermo=(NASA([10.00, 135.97],
                     [ 3.95714996E+00,  5.72646980E-03,  4.63611760E-04,
                      -3.04137514E-06,  6.85019471E-09, -2.20910416E+04,
                       8.21931848E+00]),
                NASA([135.97, 3000.00],
                     [ 3.32467612E+00,  3.69033556E-02, -1.89960416E-05,
                       4.73417677E-09, -4.59705291E-13, -2.20854630E+04,
                       9.58133237E+00])))

species(name='trisub_epoxy',
        atoms='C:4 H:8 O:2',
        thermo=(NASA([10.00, 209.19],
                     [ 3.75295042E+00,  2.37546930E-02,  1.26610110E-04,
                      -4.78364365E-07,  5.79468168E-10, -4.15515320E+04,
                       1.12739684E+01]),
                NASA([209.19, 3000.00],
                     [ 2.64185254E+00,  4.50006531E-02, -2.57361066E-05,
                       7.15266054E-09, -7.72980731E-13, -4.15050464E+04,
                       1.48960343E+01])))

species(name='bQOOHg',
        atoms='C:4 H:9 O:3',
        thermo=(NASA([10.00, 441.09],
                     [ 3.56595280E+00,  3.36073467E-02,  2.03462772E-04,
                      -5.98977617E-07,  4.83271168E-10, -2.53751976E+04,
                       1.33537891E+01]),
                NASA([441.09, 3000.00],
                     [ 6.09031192E+00,  5.80517622E-02, -4.06392697E-05,
                       1.32574026E-08, -1.62501077E-12, -2.60583831E+04,
                      -1.97849715E+00])))

species(name='CH2O',
        atoms='C:1 H:2 O:1',
        thermo=(NASA([10.00, 601.31],
                     [ 4.03190845E+00, -1.93233367E-03,  8.89743345E-06,
                       2.98105926E-09, -7.90813886E-12, -1.42276270E+04,
                       3.47574660E+00]),
                NASA([601.31, 3000.00],
                     [ 1.40134195E+00,  9.48858016E-03, -4.43088317E-06,
                       9.48452194E-10, -7.43790219E-14, -1.38013869E+04,
                       1.57423780E+01])))

species(name='galkene',
        atoms='C:4 H:8 O:1',
        thermo=(NASA([10.00, 383.47],
                     [ 3.84035604E+00,  1.20378740E-02,  1.87486319E-04,
                      -5.44759148E-07,  4.80711015E-10, -2.10278771E+04,
                       1.02570291E+01]),
                NASA([383.47, 3000.00],
                     [ 4.00413385E+00,  3.79025144E-02, -2.15435710E-05,
                       6.15213311E-09, -6.97446345E-13, -2.12431665E+04,
                       6.98052628E+00])))

species(name='O2',
        atoms='O:2',
        thermo=(NASA([10.00, 605.96],
                     [ 3.50743498E+00, -4.43860349E-04,  1.45938058E-06,
                       1.61509333E-09, -2.32050052E-12, -9.24756224E+02,
                       4.72183634E+00]),
                NASA([605.96, 3000.00],
                     [ 2.87462882E+00,  2.17840991E-03, -1.18262921E-06,
                       2.86910493E-10, -2.53297146E-14, -8.19517838E+02,
                       7.69331810E+00])))

species(name='bR',
        atoms='C:4 H:9 O:1',
        thermo=(NASA([10.00, 483.43],
                     [ 3.38164846E+00,  5.97142637E-02, -1.58320095E-04,
                       3.04908893E-07, -2.13091806E-10, -1.33466641E+04,
                       1.09226843E+01]),
                NASA([483.43, 3000.00],
                     [ 2.33428824E+00,  4.22094427E-02, -2.28029290E-05,
                       6.04614564E-09, -6.30240159E-13, -1.29395822E+04,
                       1.83772893E+01])))

species(name='bQOOHa',
        atoms='C:4 H:9 O:3',
        thermo=(NASA([10.00, 390.53],
                     [ 3.54969236E+00,  3.76592474E-02,  1.76622653E-04,
                      -5.98063750E-07,  5.45069236E-10, -2.74846967E+04,
                       1.31518761E+01]),
                NASA([390.53, 3000.00],
                     [ 5.33564209E+00,  5.64935715E-02, -3.83214298E-05,
                       1.22990604E-08, -1.49549987E-12, -2.79073066E+04,
                       2.59015836E+00])))

species(name='bRO2',
        atoms='C:4 H:9 O:3',
        thermo=(NASA([10.00, 461.39],
                     [ 3.53964713E+00,  3.88723795E-02,  9.57420148E-05,
                      -2.80380499E-07,  2.09647462E-10, -3.21151895E+04,
                       1.18803618E+01]),
                NASA([461.39, 3000.00],
                     [ 3.47201723E+00,  6.00510247E-02, -4.00567321E-05,
                       1.25663813E-08, -1.49496682E-12, -3.23281363E+04,
                       9.77903975E+00])))

species(name='disub_epoxy',
        atoms='C:4 H:8 O:2',
        thermo=(NASA([10.00, 549.41],
                     [ 3.89863211E+00,  5.97532637E-03,  1.66685676E-04,
                      -3.10743768E-07,  1.78330192E-10, -3.53671421E+04,
                       1.13847308E+01]),
                NASA([549.41, 3000.00],
                     [-6.40277648E-01,  6.05960003E-02, -4.13427220E-05,
                       1.31555461E-08, -1.57685017E-12, -3.51940252E+04,
                       2.76005436E+01])))

species(name='HO2',
        atoms='H:1 O:2',
        thermo=(NASA([10.00, 891.11],
                     [ 4.02887004E+00, -1.75769289E-03,  1.08726004E-05,
                      -1.13812972E-08,  3.90113097E-12,  4.95165001E+02,
                       4.69302008E+00]),
                NASA([891.11, 3000.00],
                     [ 3.06571044E+00,  4.28505005E-03, -2.19325920E-06,
                       5.58882699E-10, -5.61246669E-14,  5.98557610E+02,
                       8.84564156E+00])))

#-------------------------------------------------------------------------------
# Reaction data
#-------------------------------------------------------------------------------

# Reaction 1
chebyshev_reaction('bQOOHg (+ M) <=> bRO2 (+ M)',
                   Tmin=180.0, Tmax=1500.0,
                   Pmin=(0.01, 'atm'), Pmax=(98.692, 'atm'),
                   coeffs=[[ 1.86400e+00,  6.49100e-01, -1.62500e-01, -1.54700e-03,  5.09800e-03,  4.67300e-04, -8.60100e-05, -2.98200e-05],
                           [ 3.57200e+00,  1.10100e+00, -2.51000e-01, -1.34500e-02,  8.15500e-03,  1.72500e-03, -1.18800e-04, -1.14700e-04],
                           [ 7.55200e-01,  6.63000e-01, -9.70600e-02, -2.94500e-02,  2.49300e-03,  3.03000e-03,  1.54700e-04, -2.09200e-04],
                           [-1.41900e-01,  2.72600e-01,  1.55000e-02, -2.89600e-02, -3.96600e-03,  2.88800e-03,  6.74100e-04, -1.90500e-04],
                           [-2.02300e-01,  7.85500e-02,  4.08300e-02, -1.31400e-02, -6.73800e-03,  8.93000e-04,  1.02800e-03,  1.40300e-05],
                           [-8.57600e-02,  3.11900e-02,  2.00000e-02,  7.66800e-04, -4.63600e-03, -1.20800e-03,  7.79600e-04,  2.68500e-04],
                           [-2.17200e-02,  2.57200e-02,  2.69700e-03,  4.07500e-03, -1.03100e-03, -1.72200e-03,  1.04700e-04,  3.44300e-04],
                           [-9.81100e-03,  1.49800e-02,  6.48300e-04,  1.53700e-03,  7.49600e-04, -8.71700e-04, -3.86900e-04,  1.88700e-04],
                           [-9.94400e-03,  3.11600e-03,  3.08500e-03, -4.02300e-04,  6.15700e-04,  1.74600e-05, -3.96800e-04, -2.28600e-05],
                           [-7.06500e-03, -1.03500e-03,  2.91900e-03, -4.60800e-04,  9.69700e-05,  2.66000e-04, -1.54700e-04, -1.14300e-04]])

# Reaction 2
chebyshev_reaction('bQOOHa (+ M) <=> bRO2 (+ M)',
                   Tmin=180.0, Tmax=1500.0,
                   Pmin=(0.01, 'atm'), Pmax=(98.692, 'atm'),
                   coeffs=[[ 3.77100e+00,  7.18100e-01, -1.07100e-01, -1.14900e-02,  1.14700e-03,  3.39000e-04,  6.76700e-05,  6.33400e-06],
                           [ 1.75700e+00,  1.20100e+00, -1.59500e-01, -2.12000e-02,  3.51700e-04,  5.10800e-04,  1.73800e-04,  3.44900e-05],
                           [ 3.84400e-01,  6.79600e-01, -5.00400e-02, -1.34300e-02, -3.34500e-03, -1.03500e-04,  2.04400e-04,  8.75200e-05],
                           [-3.96600e-02,  2.22100e-01,  2.05700e-02, -6.38300e-04, -4.46800e-03, -1.04500e-03,  5.48300e-05,  1.28900e-04],
                           [-9.75700e-02,  1.17600e-02,  2.51700e-02,  7.77300e-03, -1.42700e-03, -1.50500e-03, -3.01100e-04,  9.41300e-05],
                           [-6.76500e-02, -9.48900e-03,  2.49700e-03,  5.97900e-03,  2.54400e-03, -8.28500e-04, -5.84500e-04, -3.83700e-05],
                           [-4.12100e-02,  2.16900e-02, -9.87200e-03, -6.85200e-04,  3.59600e-03,  4.32100e-04, -4.81600e-04, -1.80900e-04],
                           [-2.50000e-02,  3.17600e-02, -7.20500e-03, -4.31100e-03,  1.71100e-03,  1.11300e-03, -6.88500e-05, -2.05100e-04],
                           [-1.34800e-02,  1.94100e-02, -7.17700e-04, -3.40400e-03, -4.43200e-04,  8.51300e-04,  2.64700e-04, -9.65600e-05],
                           [-5.55800e-03,  4.67400e-03,  2.65500e-03, -1.17600e-03, -1.17500e-03,  2.42300e-04,  2.93900e-04,  2.92700e-05]])

# Reaction 3
chebyshev_reaction('bQOOH[O] (+ M) <=> bRO2 (+ M)',
                   Tmin=180.0, Tmax=1500.0,
                   Pmin=(0.01, 'atm'), Pmax=(98.692, 'atm'),
                   coeffs=[[ 8.30200e+00,  8.19600e-01, -1.96300e-01,  1.48500e-02,  1.37300e-03, -1.41700e-03,  2.64300e-04,  1.23700e-04],
                           [ 5.72500e-01,  1.03700e+00, -1.27700e-01, -3.68400e-02,  6.89300e-03,  1.00100e-03, -8.40300e-04,  2.14000e-04],
                           [-5.39200e-01,  4.45400e-01,  3.25900e-02, -3.15300e-02, -7.49000e-03,  3.28800e-03,  3.44300e-04, -3.86300e-04],
                           [-2.89100e-01,  1.88100e-01,  3.18800e-02,  7.54000e-05, -9.61800e-03, -7.21000e-04,  1.27700e-03, -4.03400e-05],
                           [-1.40500e-01,  9.04400e-02,  5.30800e-03,  9.88000e-03, -2.19000e-03, -2.87600e-03,  2.53500e-04,  4.04100e-04],
                           [-7.06400e-02,  4.72000e-02, -6.25300e-03,  5.88400e-03,  2.78600e-03, -1.73800e-03, -7.32500e-04,  2.49800e-04],
                           [-3.34100e-02,  2.44600e-02, -6.25300e-03,  5.53000e-04,  3.23600e-03,  6.42900e-06, -7.69300e-04, -8.84000e-05],
                           [-1.55200e-02,  1.27200e-02, -3.20400e-03, -1.87000e-03,  1.71500e-03,  8.13500e-04, -3.20200e-04, -2.22600e-04],
                           [-7.70000e-03,  6.74600e-03, -7.15000e-04, -2.00600e-03,  3.03100e-04,  7.64600e-04,  5.38400e-05, -1.61300e-04],
                           [-4.37700e-03,  3.82000e-03,  4.40400e-04, -1.28200e-03, -3.56300e-04,  4.03500e-04,  1.86700e-04, -5.27700e-05]])

# Reaction 4
chebyshev_reaction('O2 + bR (+ M) <=> bRO2 (+ M)',
                   Tmin=180.0, Tmax=1500.0,
                   Pmin=(0.01, 'atm'), Pmax=(98.692, 'atm'),
                   coeffs=[[ 9.60800e+00,  3.16700e-01, -1.04100e-01,  1.34900e-02, -2.37200e-04,  3.70700e-04, -8.98000e-05, -1.69700e-05],
                           [-4.64500e-01,  4.99500e-01, -1.39700e-01,  3.13100e-03,  5.50500e-03, -4.69800e-04,  3.78700e-05, -6.06000e-05],
                           [-1.99000e-01,  2.78000e-01, -4.20700e-02, -2.01000e-02,  6.85400e-03,  4.10700e-04, -2.82100e-04,  6.75900e-06],
                           [-1.13100e-01,  1.26600e-01,  6.20500e-03, -2.01400e-02,  1.85900e-03,  1.79600e-03, -3.03200e-04, -5.76000e-05],
                           [-6.62000e-02,  6.29100e-02,  1.11000e-02, -9.57800e-03, -2.10200e-03,  1.55200e-03,  1.31500e-04, -1.33100e-04],
                           [-4.29700e-02,  3.84500e-02,  5.61100e-03, -2.78500e-03, -2.32400e-03,  4.39600e-04,  3.84600e-04, -6.42200e-05],
                           [-2.66400e-02,  2.17600e-02,  4.16800e-03, -1.22100e-03, -1.17000e-03, -1.63300e-04,  2.56500e-04,  4.60400e-05],
                           [-1.44000e-02,  8.97000e-03,  4.61600e-03, -9.64000e-04, -5.99100e-04, -1.44800e-04,  5.87300e-05,  6.91700e-05],
                           [-7.25600e-03,  2.48000e-03,  3.83700e-03, -3.55200e-04, -5.22400e-04, -3.51100e-05, -1.63300e-06,  2.97600e-05],
                           [-4.15900e-03,  8.87700e-04,  2.18100e-03,  1.92800e-04, -4.07600e-04, -4.51700e-05,  1.42500e-05,  2.89900e-06]])
#  bRO2(+M) <=> bQOOHg(+M)                             1.000e+00 0.000     0.000
#      TCHEB/ 180.000   1500.000 /
#      PCHEB/ 0.010     98.692   /
#      CHEB/ 10 8/
#      CHEB/ -6.290e+00   6.491e-01    -1.625e-01   -1.547e-03   5.098e-03   /
#      CHEB/ 4.673e-04    -8.601e-05   -2.982e-05   1.112e+01    1.101e+00   /
#      CHEB/ -2.510e-01   -1.345e-02   8.155e-03    1.725e-03    -1.188e-04  /
#      CHEB/ -1.147e-04   9.009e-01    6.630e-01    -9.706e-02   -2.945e-02  /
#      CHEB/ 2.493e-03    3.030e-03    1.547e-04    -2.092e-04   -1.048e-01  /
#      CHEB/ 2.726e-01    1.550e-02    -2.896e-02   -3.966e-03   2.888e-03   /
#      CHEB/ 6.741e-04    -1.905e-04   -1.965e-01   7.855e-02    4.083e-02   /
#      CHEB/ -1.314e-02   -6.738e-03   8.930e-04    1.028e-03    1.403e-05   /
#      CHEB/ -8.590e-02   3.119e-02    2.000e-02    7.668e-04    -4.636e-03  /
#      CHEB/ -1.208e-03   7.796e-04    2.685e-04    -2.230e-02   2.572e-02   /
#      CHEB/ 2.697e-03    4.075e-03    -1.031e-03   -1.722e-03   1.047e-04   /
#      CHEB/ 3.443e-04    -1.026e-02   1.498e-02    6.483e-04    1.537e-03   /
#      CHEB/ 7.496e-04    -8.717e-04   -3.869e-04   1.887e-04    -1.027e-02  /
#      CHEB/ 3.116e-03    3.085e-03    -4.023e-04   6.157e-04    1.746e-05   /
#      CHEB/ -3.968e-04   -2.286e-05   -7.251e-03   -1.035e-03   2.919e-03   /
#      CHEB/ -4.608e-04   9.697e-05    2.660e-04    -1.547e-04   -1.143e-04  /

# Reaction 5
chebyshev_reaction('bQOOHa (+ M) <=> bQOOHg (+ M)',
                   Tmin=180.0, Tmax=1500.0,
                   Pmin=(0.01, 'atm'), Pmax=(98.692, 'atm'),
                   coeffs=[[-6.80300e+00, -2.61100e-01, -3.28700e-01, -1.40000e-02,  6.61800e-03,  8.33000e-04, -1.70600e-06, -5.31100e-05],
                           [ 8.80300e+00,  2.34900e+00, -3.05400e-01, -5.93700e-02,  4.55800e-03,  3.23000e-03,  1.30700e-04, -9.15000e-05],
                           [ 8.18900e-01,  7.53400e-01,  6.13800e-02, -3.93700e-02, -1.26200e-02,  1.92700e-03,  9.99500e-04, -6.38800e-06],
                           [-2.75000e-01,  1.25600e-01,  8.96600e-02, -4.43100e-03, -7.83000e-03, -1.46500e-03,  3.54700e-04,  1.82600e-04],
                           [-1.32700e-01,  6.04800e-02,  2.84800e-02, -1.73000e-04,  3.22700e-04, -5.01900e-04, -2.85000e-04, -9.44200e-05],
                           [ 3.72600e-03,  4.01700e-02,  8.75700e-03, -4.27200e-04, -8.31400e-04,  3.82100e-04,  4.02000e-04, -1.11100e-04],
                           [ 8.15500e-03,  6.08800e-03,  7.38400e-03,  1.81600e-03, -1.73400e-03, -5.44900e-04,  4.60600e-04,  2.70300e-04],
                           [-3.96500e-03, -2.48300e-03,  5.54900e-03,  7.42300e-04, -1.73800e-04, -6.57900e-04, -2.06200e-04,  2.80100e-04],
                           [-7.55200e-03,  1.64400e-03,  3.15700e-03, -5.45000e-04,  3.83300e-04, -4.06000e-05, -3.73000e-04, -1.80700e-05],
                           [ 7.34300e-04,  1.89000e-03,  1.58500e-03, -3.52700e-05, -8.19500e-05,  1.80900e-04, -9.82700e-05, -1.47500e-04]])

# Reaction 6
chebyshev_reaction('bQOOH[O] (+ M) <=> bQOOHg (+ M)',
                   Tmin=180.0, Tmax=1500.0,
                   Pmin=(0.01, 'atm'), Pmax=(98.692, 'atm'),
                   coeffs=[[-1.29000e-01, -2.43700e-01, -3.97600e-01,  1.30400e-02,  6.68000e-03, -1.78700e-03,  3.19700e-04,  2.17700e-04],
                           [ 4.66400e+00,  2.08900e+00, -2.35200e-01, -7.96900e-02,  7.18700e-03,  5.59800e-03, -8.95700e-04, -2.57900e-04],
                           [ 2.16700e-01,  7.78400e-01,  6.00000e-02, -4.80800e-02, -1.41300e-02,  3.37500e-03,  1.66800e-03, -3.88500e-04],
                           [-2.80300e-01,  2.27000e-01,  6.95700e-02, -5.07700e-03, -9.04400e-03, -2.25500e-03,  8.41300e-04,  4.53600e-04],
                           [-1.14200e-01,  6.55800e-02,  2.94200e-02,  4.98100e-03, -1.45000e-03, -1.54200e-03, -4.22200e-04,  1.48900e-04],
                           [-2.27800e-03,  2.66200e-02,  8.66200e-03,  2.56000e-03,  3.56700e-04, -1.28700e-04, -9.26800e-05, -1.66600e-04],
                           [ 5.25900e-03,  1.17300e-02,  4.55200e-03, -1.53000e-04,  1.61900e-04, -3.75600e-05,  1.99300e-04,  4.11100e-05],
                           [-4.70700e-03,  4.51500e-03,  4.06400e-03, -7.29900e-04, -9.56700e-05, -1.50300e-04,  1.23400e-05,  1.78200e-04],
                           [-5.26300e-03,  1.62000e-03,  3.24500e-03, -3.26500e-04, -2.41400e-04, -6.15300e-05, -1.31700e-04,  6.97800e-05],
                           [-1.31200e-03,  6.48100e-04,  2.16200e-03,  1.88800e-05, -2.12900e-04,  1.41700e-05, -9.48200e-05, -4.52400e-05]])

# Reaction 7
chebyshev_reaction('O2 + bR (+ M) <=> bQOOHg (+ M)',
                   Tmin=180.0, Tmax=1500.0,
                   Pmin=(0.01, 'atm'), Pmax=(98.692, 'atm'),
                   coeffs=[[ 4.20100e+00, -7.24100e-01, -3.72100e-01,  3.31800e-02,  5.49200e-03, -2.89200e-03,  1.01200e-03,  2.05400e-04],
                           [ 1.48600e+00,  1.30700e+00, -1.62000e-01, -8.30200e-02,  1.42700e-02,  7.17000e-03, -2.08600e-03, -1.39400e-04],
                           [ 2.11000e-01,  5.21100e-01,  4.41200e-02, -5.74000e-02, -9.66600e-03,  5.94300e-03,  1.83900e-03, -8.44500e-04],
                           [-2.36700e-02,  1.44700e-01,  7.49800e-02, -1.75600e-02, -1.35900e-02,  8.69800e-05,  2.19200e-03,  3.29900e-04],
                           [ 9.50200e-03,  3.76500e-02,  4.03100e-02,  4.24500e-03, -7.90000e-03, -2.47400e-03,  6.49400e-04,  7.26400e-04],
                           [ 1.89600e-02,  2.08000e-02,  1.30500e-02,  6.94100e-03, -1.87600e-03, -2.13400e-03, -3.67600e-04,  3.50400e-04],
                           [ 1.66900e-03,  1.35100e-02,  4.87500e-03,  2.98600e-03,  6.75200e-04, -8.64400e-04, -5.45600e-04, -1.95300e-05],
                           [-4.86900e-03,  3.68500e-03,  4.38200e-03,  7.12100e-04,  4.43300e-04,  4.45600e-05, -2.94600e-04, -1.59800e-04],
                           [-3.93500e-03, -7.30600e-05,  2.80900e-03,  6.24200e-04, -7.09600e-05,  1.56700e-04, -1.89000e-05, -1.18100e-04],
                           [-5.06200e-04, -7.02100e-04,  1.32500e-03,  7.06100e-04, -1.76700e-04,  2.87700e-05,  7.78300e-05, -4.02800e-05]])
#  bRO2(+M) <=> bQOOHa(+M)                             1.000e+00 0.000     0.000
#      TCHEB/ 180.000   1500.000 /
#      PCHEB/ 0.010     98.692   /
#      CHEB/ 10 8/
#      CHEB/ -1.637e+00   7.181e-01    -1.071e-01   -1.149e-02   1.147e-03   /
#      CHEB/ 3.390e-04    6.767e-05    6.334e-06    6.918e+00    1.201e+00   /
#      CHEB/ -1.595e-01   -2.120e-02   3.517e-04    5.108e-04    1.738e-04   /
#      CHEB/ 3.449e-05    4.394e-01    6.796e-01    -5.004e-02   -1.343e-02  /
#      CHEB/ -3.345e-03   -1.035e-04   2.044e-04    8.752e-05    -3.838e-02  /
#      CHEB/ 2.221e-01    2.057e-02    -6.383e-04   -4.468e-03   -1.045e-03  /
#      CHEB/ 5.483e-05    1.289e-04    -1.024e-01   1.176e-02    2.517e-02   /
#      CHEB/ 7.773e-03    -1.427e-03   -1.505e-03   -3.011e-04   9.413e-05   /
#      CHEB/ -7.041e-02   -9.489e-03   2.497e-03    5.979e-03    2.544e-03   /
#      CHEB/ -8.285e-04   -5.845e-04   -3.837e-05   -4.255e-02   2.169e-02   /
#      CHEB/ -9.872e-03   -6.852e-04   3.596e-03    4.321e-04    -4.816e-04  /
#      CHEB/ -1.809e-04   -2.572e-02   3.176e-02    -7.205e-03   -4.311e-03  /
#      CHEB/ 1.711e-03    1.113e-03    -6.885e-05   -2.051e-04   -1.383e-02  /
#      CHEB/ 1.941e-02    -7.177e-04   -3.404e-03   -4.432e-04   8.513e-04   /
#      CHEB/ 2.647e-04    -9.656e-05   -5.678e-03   4.674e-03    2.655e-03   /
#      CHEB/ -1.176e-03   -1.175e-03   2.423e-04    2.939e-04    2.927e-05   /
#  bQOOHg(+M) <=> bQOOHa(+M)                           1.000e+00 0.000     0.000
#      TCHEB/ 180.000   1500.000 /
#      PCHEB/ 0.010     98.692   /
#      CHEB/ 10 8/
#      CHEB/ -4.057e+00   -2.611e-01   -3.287e-01   -1.400e-02   6.618e-03   /
#      CHEB/ 8.330e-04    -1.706e-06   -5.311e-05   6.416e+00    2.349e+00   /
#      CHEB/ -3.054e-01   -5.937e-02   4.558e-03    3.230e-03    1.307e-04   /
#      CHEB/ -9.150e-05   7.282e-01    7.534e-01    6.138e-02    -3.937e-02  /
#      CHEB/ -1.262e-02   1.927e-03    9.995e-04    -6.388e-06   -3.108e-01  /
#      CHEB/ 1.256e-01    8.966e-02    -4.431e-03   -7.830e-03   -1.465e-03  /
#      CHEB/ 3.547e-04    1.826e-04    -1.433e-01   6.048e-02    2.848e-02   /
#      CHEB/ -1.730e-04   3.227e-04    -5.019e-04   -2.850e-04   -9.442e-05  /
#      CHEB/ 1.100e-03    4.017e-02    8.757e-03    -4.272e-04   -8.314e-04  /
#      CHEB/ 3.821e-04    4.020e-04    -1.111e-04   7.388e-03    6.088e-03   /
#      CHEB/ 7.384e-03    1.816e-03    -1.734e-03   -5.449e-04   4.606e-04   /
#      CHEB/ 2.703e-04    -4.236e-03   -2.483e-03   5.549e-03    7.423e-04   /
#      CHEB/ -1.738e-04   -6.579e-04   -2.062e-04   2.801e-04    -7.576e-03  /
#      CHEB/ 1.644e-03    3.157e-03    -5.450e-04   3.833e-04    -4.060e-05  /
#      CHEB/ -3.730e-04   -1.807e-05   8.013e-04    1.890e-03    1.585e-03   /
#      CHEB/ -3.527e-05   -8.195e-05   1.809e-04    -9.827e-05   -1.475e-04  /

# Reaction 8
chebyshev_reaction('bQOOH[O] (+ M) <=> bQOOHa (+ M)',
                   Tmin=180.0, Tmax=1500.0,
                   Pmin=(0.01, 'atm'), Pmax=(98.692, 'atm'),
                   coeffs=[[ 2.57600e+00, -4.48000e-02, -4.07000e-01,  1.90100e-02,  3.40900e-03, -2.94100e-03,  5.54400e-04,  2.90800e-04],
                           [ 2.40600e+00,  2.11100e+00, -1.12200e-01, -9.98500e-02,  3.54400e-03,  4.93800e-03, -1.27400e-03, -1.95600e-05],
                           [-2.19400e-01,  6.79700e-01,  1.30300e-01, -2.86600e-02, -2.30800e-02,  1.40700e-03,  1.93600e-03, -3.41200e-04],
                           [-2.72800e-01,  1.69500e-01,  6.02400e-02,  2.68400e-02, -9.05400e-03, -6.11100e-03,  5.14200e-04,  6.30300e-04],
                           [-1.10700e-01,  5.51600e-02, -3.76600e-03,  1.98700e-02,  6.80600e-03, -3.62500e-03, -1.76300e-03,  2.56700e-04],
                           [-2.10700e-02,  3.15400e-02, -1.34800e-02,  1.34200e-03,  7.76500e-03,  9.04600e-04, -1.35700e-03, -4.16600e-04],
                           [-3.90700e-03,  1.74300e-02, -3.85400e-03, -5.97900e-03,  2.73600e-03,  2.23000e-03, -1.14000e-04, -4.22900e-04],
                           [-1.65300e-03,  7.74500e-03,  2.60400e-03, -4.87000e-03, -6.91100e-04,  1.41300e-03,  4.54500e-04, -1.40500e-04],
                           [-5.02300e-03,  3.83200e-03,  3.29400e-03, -1.99200e-03, -1.44900e-03,  3.74200e-04,  4.27600e-04,  3.50000e-05],
                           [ 7.12500e-04,  1.73000e-03,  2.43100e-03, -3.58600e-04, -1.00400e-03, -1.40400e-04,  2.31400e-04,  7.58400e-05]])

# Reaction 9
chebyshev_reaction('O2 + bR (+ M) <=> bQOOHa (+ M)',
                   Tmin=180.0, Tmax=1500.0,
                   Pmin=(0.01, 'atm'), Pmax=(98.692, 'atm'),
                   coeffs=[[ 5.48000e+00, -1.93600e-01, -3.61600e-01, -2.63100e-02,  1.36200e-02,  5.03300e-03, -1.95500e-03, -8.36600e-04],
                           [ 4.38900e-01,  1.05500e+00, -1.96400e-03, -2.12800e-02, -2.01500e-02, -2.57800e-03,  4.05000e-03,  7.45200e-04],
                           [-1.09200e-01,  4.03400e-01,  3.20500e-02, -6.88200e-03,  2.83100e-03, -4.75700e-03, -1.61400e-03,  8.39300e-04],
                           [-1.09800e-01,  1.18500e-01,  3.61900e-02, -9.43400e-03,  4.17900e-03,  1.53200e-03, -1.80800e-03, -5.83200e-04],
                           [-1.02300e-02,  3.59100e-02,  1.94200e-02, -4.39300e-03, -9.23200e-04,  2.75900e-03,  1.34900e-04, -6.62300e-04],
                           [ 1.71400e-02,  2.12400e-02,  6.17900e-03, -7.60300e-04, -2.23200e-03,  9.42700e-04,  9.02400e-04, -1.05700e-04],
                           [ 1.96500e-03,  1.40900e-02,  3.56300e-03, -7.01500e-04, -1.35000e-03, -2.05400e-04,  5.41100e-04,  2.09200e-04],
                           [-2.16100e-03,  4.95800e-03,  4.30700e-03, -5.68000e-04, -8.19700e-04, -3.25000e-04,  9.49600e-05,  1.85300e-04],
                           [-4.95100e-03,  1.15200e-03,  3.61000e-03,  1.44600e-05, -6.91100e-04, -1.55300e-04, -2.45900e-05,  4.56400e-05],
                           [ 1.73900e-03, -3.45100e-04,  1.82300e-03,  6.98900e-04, -4.11700e-04, -1.82100e-04, -1.29500e-05,  4.85400e-07]])
#  bRO2(+M) <=> bQOOH[O](+M)                           1.000e+00 0.000     0.000
#      TCHEB/ 180.000   1500.000 /
#      PCHEB/ 0.010     98.692   /
#      CHEB/ 10 8/
#      CHEB/ -3.878e+00   8.196e-01    -1.963e-01   1.485e-02    1.373e-03   /
#      CHEB/ -1.417e-03   2.643e-04    1.237e-04    1.061e+01    1.037e+00   /
#      CHEB/ -1.277e-01   -3.684e-02   6.893e-03    1.001e-03    -8.403e-04  /
#      CHEB/ 2.140e-04    -5.451e-01   4.454e-01    3.259e-02    -3.153e-02  /
#      CHEB/ -7.490e-03   3.288e-03    3.443e-04    -3.863e-04   -3.102e-01  /
#      CHEB/ 1.881e-01    3.188e-02    7.540e-05    -9.618e-03   -7.210e-04  /
#      CHEB/ 1.277e-03    -4.034e-05   -1.513e-01   9.044e-02    5.308e-03   /
#      CHEB/ 9.880e-03    -2.190e-03   -2.876e-03   2.535e-04    4.041e-04   /
#      CHEB/ -7.458e-02   4.720e-02    -6.253e-03   5.884e-03    2.786e-03   /
#      CHEB/ -1.738e-03   -7.325e-04   2.498e-04    -3.493e-02   2.446e-02   /
#      CHEB/ -6.253e-03   5.530e-04    3.236e-03    6.429e-06    -7.693e-04  /
#      CHEB/ -8.840e-05   -1.615e-02   1.272e-02    -3.204e-03   -1.870e-03  /
#      CHEB/ 1.715e-03    8.135e-04    -3.202e-04   -2.226e-04   -7.878e-03  /
#      CHEB/ 6.746e-03    -7.150e-04   -2.006e-03   3.031e-04    7.646e-04   /
#      CHEB/ 5.384e-05    -1.613e-04   -4.371e-03   3.820e-03    4.404e-04   /
#      CHEB/ -1.282e-03   -3.563e-04   4.035e-04    1.867e-04    -5.277e-05  /
#  bQOOHg(+M) <=> bQOOH[O](+M)                         1.000e+00 0.000     0.000
#      TCHEB/ 180.000   1500.000 /
#      PCHEB/ 0.010     98.692   /
#      CHEB/ 10 8/
#      CHEB/ -4.155e+00   -2.437e-01   -3.976e-01   1.304e-02    6.680e-03   /
#      CHEB/ -1.787e-03   3.197e-04    2.177e-04    7.152e+00    2.089e+00   /
#      CHEB/ -2.352e-01   -7.969e-02   7.187e-03    5.598e-03    -8.957e-04  /
#      CHEB/ -2.579e-04   6.507e-02    7.784e-01    6.000e-02    -4.808e-02  /
#      CHEB/ -1.413e-02   3.375e-03    1.668e-03    -3.885e-04   -3.386e-01  /