units(length='cm', time='s', quantity='mol', act_energy='kcal/mol')

ideal_gas(name='gas',
          elements="H D T C Ci O Oi N Ne Ar He Si S F Cl Br I X",
          species="""OH             bQOOH[O]       acetone
                     H2O            balkoxyketone  ibutenol
                     trisub_epoxy   bQOOHg         CH2O
                     galkene        O2             bR
                     bQOOHa         bRO2           disub_epoxy
                     HO2""",
          reactions='all',
          initial_state=state(temperature=300.0, pressure=OneAtm))

#-------------------------------------------------------------------------------
# Element data
#-------------------------------------------------------------------------------

element(symbol='Ci', atomic_mass=13.003)
element(symbol='D', atomic_mass=2.014)
element(symbol='Oi', atomic_mass=18.0)
element(symbol='T', atomic_mass=3.016)
element(symbol='X', atomic_mass=195.083)
#-------------------------------------------------------------------------------
# Species data
#-------------------------------------------------------------------------------

species(name='OH',
        atoms='H:1 O:1',
        thermo=(NASA([10.00, 984.14],
                     [ 3.49686242E+00,  1.83973160E-04, -9.97634499E-07,
                       1.56942783E-09, -6.10128175E-13,  3.41673934E+03,
                       1.48093120E+00]),
                NASA([984.14, 3000.00],
                     [ 3.45221464E+00, -2.95124034E-04,  7.39418622E-07,
                      -2.89309866E-10,  3.53041498E-14,  3.45751599E+03,
                       1.85813897E+00])))

species(name='bQOOH[O]',
        atoms='C:4 H:9 O:3',
        thermo=(NASA([10.00, 338.69],
                     [ 3.60915854E+00,  3.39069566E-02,  2.22227265E-04,
                      -8.23527342E-07,  8.56246333E-10, -2.26403506E+04,
                       1.23284605E+01]),
                NASA([338.69, 3000.00],
                     [ 5.03198881E+00,  5.46235886E-02, -3.56935806E-05,
                       1.12371751E-08, -1.35390171E-12, -2.29519334E+04,
                       3.82760723E+00])))

species(name='acetone',
        atoms='C:3 H:6 O:1',
        thermo=(NASA([10.00, 414.35],
                     [ 3.73496166E+00,  3.05743218E-02, -1.26253585E-04,
                       3.66080978E-07, -3.31430437E-10, -2.73489197E+04,
                       8.24936012E+00]),
                NASA([414.35, 3000.00],
                     [ 1.70010292E-01,  3.28431468E-02, -1.80960132E-05,
                       4.82960690E-09, -5.02388538E-13, -2.67775366E+04,
                       2.56372653E+01])))

species(name='H2O',
        atoms='H:2 O:1',
        thermo=(NASA([10.00, 773.84],
                     [ 4.00473541E+00, -2.39729134E-04,  8.11862955E-07,
                       1.47891862E-09, -1.19783539E-12, -3.03533807E+04,
                      -9.96254147E-02]),
                NASA([773.84, 3000.00],
                     [ 3.52133374E+00,  1.05377009E-03,  6.40722099E-07,
                      -3.86240235E-10,  5.49243294E-14, -3.02424794E+04,
                       2.34173094E+00])))

species(name='balkoxyketone',
        atoms='C:4 H:7 O:2',
        thermo=(NASA([10.00, 269.93],
                     [ 3.81931151E+00,  1.68519318E-02,  2.42742224E-04,
                      -9.64821161E-07,  1.18509335E-09, -2.03461918E+04,
                       1.20521854E+01]),
                NASA([269.93, 3000.00],
                     [ 3.57555944E+00,  4.28868089E-02, -2.65390705E-05,
                       7.99659117E-09, -9.32983470E-13, -2.04147199E+04,
                       1.13957990E+01])))

species(name='ibutenol',
        atoms='C:4 H:8 O:1',
        thermo=(NASA([10.00, 135.97],
                     [ 3.95714996E+00,  5.72646980E-03,  4.63611760E-04,
                      -3.04137514E-06,  6.85019471E-09, -2.32383465E+04,
                       8.21931848E+00]),
                NASA([135.97, 3000.00],
                     [ 3.32467612E+00,  3.69033556E-02, -1.89960416E-05,
                       4.73417677E-09, -4.59705291E-13, -2.32327678E+04,
                       9.58133237E+00])))

species(name='trisub_epoxy',
        atoms='C:4 H:8 O:2',
        thermo=(NASA([10.00, 209.19],
                     [ 3.75295042E+00,  2.37546930E-02,  1.26610110E-04,
                      -4.78364365E-07,  5.79468168E-10, -3.91553695E+04,
                       1.12739684E+01]),
                NASA([209.19, 3000.00],
                     [ 2.64185254E+00,  4.50006531E-02, -2.57361066E-05,
                       7.15266054E-09, -7.72980731E-13, -3.91088839E+04,
                       1.48960343E+01])))

species(name='bQOOHg',
        atoms='C:4 H:9 O:3',
        thermo=(NASA([10.00, 441.09],
                     [ 3.56595280E+00,  3.36073467E-02,  2.03462772E-04,
                      -5.98977617E-07,  4.83271168E-10, -2.41320498E+04,
                       1.33537891E+01]),
                NASA([441.09, 3000.00],
                     [ 6.09031192E+00,  5.80517622E-02, -4.06392697E-05,
                       1.32574026E-08, -1.62501077E-12, -2.48152353E+04,
                      -1.97849715E+00])))

species(name='CH2O',
        atoms='C:1 H:2 O:1',
        thermo=(NASA([10.00, 601.31],
                     [ 4.03190845E+00, -1.93233367E-03,  8.89743345E-06,
                       2.98105926E-09, -7.90813886E-12, -1.42276270E+04,
                       3.47574660E+00]),
                NASA([601.31, 3000.00],
                     [ 1.40134195E+00,  9.48858016E-03, -4.43088317E-06,
                       9.48452194E-10, -7.43790219E-14, -1.38013869E+04,
                       1.57423780E+01])))

species(name='galkene',
        atoms='C:4 H:8 O:1',
        thermo=(NASA([10.00, 383.47],
                     [ 3.84035604E+00,  1.20378740E-02,  1.87486319E-04,
                      -5.44759148E-07,  4.80711015E-10, -1.94079684E+04,
                       1.02570291E+01]),
                NASA([383.47, 3000.00],
                     [ 4.00413385E+00,  3.79025144E-02, -2.15435710E-05,
                       6.15213311E-09, -6.97446345E-13, -1.96232577E+04,
                       6.98052628E+00])))

species(name='O2',
        atoms='O:2',
        thermo=(NASA([10.00, 605.96],
                     [ 3.50743498E+00, -4.43860349E-04,  1.45938058E-06,
                       1.61509333E-09, -2.32050052E-12, -9.24756224E+02,
                       4.72183634E+00]),
                NASA([605.96, 3000.00],
                     [ 2.87462882E+00,  2.17840991E-03, -1.18262921E-06,
                       2.86910493E-10, -2.53297146E-14, -8.19517838E+02,
                       7.69331810E+00])))

species(name='bR',
        atoms='C:4 H:9 O:1',
        thermo=(NASA([10.00, 483.43],
                     [ 3.38164846E+00,  5.97142637E-02, -1.58320095E-04,
                       3.04908893E-07, -2.13091806E-10, -1.07461252E+04,
                       1.09226843E+01]),
                NASA([483.43, 3000.00],
                     [ 2.33428824E+00,  4.22094427E-02, -2.28029290E-05,
                       6.04614564E-09, -6.30240159E-13, -1.03390433E+04,
                       1.83772893E+01])))

species(name='bQOOHa',
        atoms='C:4 H:9 O:3',
        thermo=(NASA([10.00, 390.53],
                     [ 3.54969236E+00,  3.76592474E-02,  1.76622653E-04,
                      -5.98063750E-07,  5.45069236E-10, -2.65649744E+04,
                       1.31518761E+01]),
                NASA([390.53, 3000.00],
                     [ 5.33564209E+00,  5.64935715E-02, -3.83214298E-05,
                       1.22990604E-08, -1.49549987E-12, -2.69875843E+04,
                       2.59015836E+00])))

species(name='bRO2',
        atoms='C:4 H:9 O:3',
        thermo=(NASA([10.00, 461.39],
                     [ 3.53964713E+00,  3.88723795E-02,  9.57420148E-05,
                      -2.80380499E-07,  2.09647462E-10, -2.98663669E+04,
                       1.18803618E+01]),
                NASA([461.39, 3000.00],
                     [ 3.47201723E+00,  6.00510247E-02, -4.00567321E-05,
                       1.25663813E-08, -1.49496682E-12, -3.00793137E+04,
                       9.77903975E+00])))

species(name='disub_epoxy',
        atoms='C:4 H:8 O:2',
        thermo=(NASA([10.00, 549.41],
                     [ 3.89863211E+00,  5.97532637E-03,  1.66685676E-04,
                      -3.10743768E-07,  1.78330192E-10, -3.47761628E+04,
                       1.13847308E+01]),
                NASA([549.41, 3000.00],
                     [-6.40277648E-01,  6.05960003E-02, -4.13427220E-05,
                       1.31555461E-08, -1.57685017E-12, -3.46030459E+04,
                       2.76005436E+01])))

species(name='HO2',
        atoms='H:1 O:2',
        thermo=(NASA([10.00, 891.11],
                     [ 4.02887004E+00, -1.75769289E-03,  1.08726004E-05,
                      -1.13812972E-08,  3.90113097E-12,  4.95165001E+02,
                       4.69302008E+00]),
                NASA([891.11, 3000.00],
                     [ 3.06571044E+00,  4.28505005E-03, -2.19325920E-06,
                       5.58882699E-10, -5.61246669E-14,  5.98557610E+02,
                       8.84564156E+00])))

#-------------------------------------------------------------------------------
# Reaction data
#-------------------------------------------------------------------------------

# Reaction 1
chebyshev_reaction('bQOOHg (+ M) <=> bRO2 (+ M)',
                   Tmin=180.0, Tmax=1500.0,
                   Pmin=(0.01, 'atm'), Pmax=(98.692, 'atm'),
                   coeffs=[[-6.49200e-01,  8.61500e-01, -1.99900e-02, -2.24300e-02,  2.55700e-03,  2.26400e-03, -2.84800e-04, -2.01100e-04],
                           [ 7.45600e-01,  1.31800e+00,  3.53200e-03, -3.52700e-02,  4.21600e-03,  3.14700e-03, -4.24400e-04, -2.69800e-04],
                           [-2.50500e+00,  4.89700e-01,  5.18500e-02, -4.61000e-03,  1.17800e-03,  4.80000e-04, -1.89600e-04, -2.40700e-06],
                           [-1.66300e+00, -1.39500e-01,  3.11500e-02,  2.24000e-02,  9.75000e-04, -1.63900e-03, -6.52000e-05,  1.67000e-04],
                           [-1.02500e+00, -3.27100e-01, -2.22600e-02,  2.19400e-02,  3.14100e-03, -1.47600e-03, -8.68400e-05,  1.26800e-04],
                           [-4.92200e-01, -2.29600e-01, -4.61000e-02,  3.44400e-03,  2.39900e-03,  1.48500e-04,  8.69700e-05, -2.04300e-05],
                           [-1.88900e-01, -8.17700e-02, -3.21000e-02, -8.78700e-03, -1.47200e-03,  7.53600e-04,  4.20900e-04, -4.38600e-05],
                           [-2.54400e-02,  3.32200e-03, -8.27300e-03, -6.81900e-03, -3.64700e-03, -2.34500e-04,  4.07600e-04,  7.86300e-05],
                           [ 6.80900e-03,  2.75500e-02,  4.22800e-03,  5.10100e-04, -2.02500e-03, -1.12200e-03, -5.06300e-05,  1.32000e-04],
                           [ 3.19300e-02,  2.57600e-02,  4.79500e-03,  3.87100e-03,  9.63600e-04, -7.57700e-04, -4.28000e-04,  1.68700e-05]])

# Reaction 2
chebyshev_reaction('bQOOHa (+ M) <=> bRO2 (+ M)',
                   Tmin=180.0, Tmax=1500.0,
                   Pmin=(0.01, 'atm'), Pmax=(98.692, 'atm'),
                   coeffs=[[-4.01700e+00,  4.55700e+00, -4.97100e-01, -1.95700e-01,  8.04600e-02,  2.34100e-02, -1.53400e-02, -3.51300e-03],
                           [-3.38800e-01, -2.01700e+00,  7.42100e-01,  2.34900e-01, -7.87600e-02, -2.32500e-02,  1.29500e-02,  1.67600e-03],
                           [-2.89200e+00, -1.24800e-01, -3.06200e-02,  9.63000e-03,  8.21500e-04, -7.31700e-04,  7.58700e-04,  4.06400e-04],
                           [-1.26800e+00, -7.29100e-02, -7.05200e-02, -1.76900e-02, -2.87200e-03, -1.43200e-03,  1.57400e-04,  8.08600e-04],
                           [-5.37300e-01, -9.40400e-02, -3.82800e-02, -4.00600e-03, -1.37900e-04, -1.25400e-03,  9.63100e-05,  5.24100e-04],
                           [-3.33900e-01, -9.43900e-03, -2.40400e-02, -9.93700e-03,  2.01900e-03,  2.63300e-03,  2.74100e-04, -3.04500e-04],
                           [-1.02600e-01, -5.77900e-02, -1.76200e-02, -9.01800e-04,  1.08300e-03,  3.39800e-04,  2.89300e-04,  8.72700e-05],
                           [-9.78600e-02,  2.30400e-02, -8.90600e-03, -7.64500e-03, -1.22300e-03,  1.12800e-03,  9.62600e-05, -2.73100e-04],
                           [ 2.47200e-02, -2.37300e-02, -1.71000e-03,  2.02700e-03, -4.15000e-04, -1.21100e-03, -1.34700e-04,  1.81000e-04],
                           [-8.60000e-03,  2.45200e-02,  3.60400e-03, -1.82800e-03, -7.35700e-04, -6.00600e-05, -6.69500e-05, -2.79900e-05]])

# Reaction 3
chebyshev_reaction('bQOOH[O] (+ M) <=> bRO2 (+ M)',
                   Tmin=180.0, Tmax=1500.0,
                   Pmin=(0.01, 'atm'), Pmax=(98.692, 'atm'),
                   coeffs=[[ 4.91000e+00,  1.65900e+00, -8.16200e-02, -1.95700e-02, -3.55800e-03,  8.41900e-04,  2.35600e-04,  6.94300e-05],
                           [-4.83400e+00,  3.69600e-01,  5.70400e-02,  1.97200e-02,  6.03000e-03, -9.87000e-04, -8.48000e-04, -2.47800e-04],
                           [-2.92900e+00, -2.05600e-01, -6.50900e-02, -4.56200e-03,  3.32900e-03,  2.10700e-03,  4.02100e-04, -3.40000e-05],
                           [-1.43400e+00, -8.81100e-02, -3.53200e-02, -1.08300e-02, -1.89000e-03, -3.98000e-04, -6.42400e-05,  6.46400e-05],
                           [-6.67800e-01, -5.43500e-02, -1.30800e-02, -9.72200e-04,  1.11200e-03,  1.19100e-04, -2.54600e-04, -1.36700e-04],
                           [-2.99800e-01, -7.18400e-02, -1.62100e-02, -7.68300e-04,  1.12900e-03,  9.34600e-04,  2.08900e-04, -6.70400e-06],
                           [-1.75200e-01, -2.44500e-02, -1.43500e-02, -4.51000e-03,  7.62700e-05,  1.03700e-04,  1.29400e-04,  6.10400e-05],
                           [-6.40700e-02, -1.79200e-02, -9.41100e-03, -2.12700e-03, -5.03400e-04, -3.36500e-05, -3.74600e-05, -3.79300e-05],
                           [ 3.79700e-03, -4.67700e-03, -4.65900e-03, -2.45800e-03, -1.90400e-04,  1.97700e-04,  1.00500e-05, -8.12500e-06],
                           [ 9.35000e-03,  1.63900e-02, -3.91300e-04, -8.54900e-04, -3.07800e-04,  4.28400e-05,  2.49300e-05, -3.67300e-06]])

# Reaction 4
chebyshev_reaction('O2 + bR (+ M) <=> bRO2 (+ M)',
                   Tmin=180.0, Tmax=1500.0,
                   Pmin=(0.01, 'atm'), Pmax=(98.692, 'atm'),
                   coeffs=[[ 1.22000e+01,  1.35500e+00, -4.01000e-01,  1.24600e-01, -2.85700e-02,  3.30400e-03,  5.22700e-04, -3.84600e-04],
                           [-2.95200e+00,  1.28000e+00, -7.67400e-02, -4.09600e-02,  2.99100e-02, -1.00900e-02,  1.42800e-03,  2.98700e-04],
                           [-1.88100e+00,  4.26800e-01,  9.90200e-02, -3.88700e-02,  9.56800e-03, -3.51700e-04, -8.72700e-04,  3.28800e-04],
                           [-1.15300e+00,  7.70900e-03,  9.12500e-02, -1.13500e-02,  3.08800e-04,  9.25300e-04, -3.93500e-04,  1.94100e-05],
                           [-6.52500e-01, -1.20500e-01,  4.24100e-02,  1.34700e-03, -1.05700e-03,  5.57100e-04, -2.57700e-05, -4.66900e-05],
                           [-3.35400e-01, -1.23200e-01,  9.19300e-03,  3.16400e-03, -9.19900e-04,  1.84800e-04,  1.53000e-04, -2.17100e-05],
                           [-1.45600e-01, -8.74200e-02, -5.52700e-03,  1.98600e-03, -5.85800e-04, -1.04700e-04,  1.38400e-04,  3.27300e-05],
                           [-4.29000e-02, -4.38000e-02, -1.14000e-02,  9.44900e-04, -1.33300e-04, -2.17700e-04,  3.62300e-05,  4.59500e-05],
                           [ 5.81300e-03, -9.50300e-03, -1.03300e-02, -7.21800e-04,  4.01300e-04, -1.37600e-04, -6.63600e-05,  3.16300e-05],
                           [ 2.05700e-02,  1.40300e-02, -6.98600e-03, -1.49100e-03,  4.23500e-04,  1.99700e-05, -8.53800e-05, -5.27600e-07]])
#  bRO2(+M) <=> bQOOHg(+M)                             1.000e+00 0.000     0.000
#      TCHEB/ 180.000   1500.000 /
#      PCHEB/ 0.010     98.692   /
#      CHEB/ 10 8/
#      CHEB/ -7.444e+00   8.615e-01    -1.999e-02   -2.243e-02   2.557e-03   /
#      CHEB/ 2.264e-03    -2.848e-04   -2.011e-04   7.226e+00    1.318e+00   /
#      CHEB/ 3.532e-03    -3.527e-02   4.216e-03    3.147e-03    -4.244e-04  /
#      CHEB/ -2.698e-04   -2.359e+00   4.897e-01    5.185e-02    -4.610e-03  /
#      CHEB/ 1.178e-03    4.800e-04    -1.896e-04   -2.407e-06   -1.626e+00  /
#      CHEB/ -1.395e-01   3.115e-02    2.240e-02    9.750e-04    -1.639e-03  /
#      CHEB/ -6.520e-05   1.670e-04    -1.019e+00   -3.271e-01   -2.226e-02  /
#      CHEB/ 2.194e-02    3.141e-03    -1.476e-03   -8.684e-05   1.268e-04   /
#      CHEB/ -4.923e-01   -2.296e-01   -4.610e-02   3.444e-03    2.399e-03   /
#      CHEB/ 1.485e-04    8.697e-05    -2.043e-05   -1.895e-01   -8.177e-02  /
#      CHEB/ -3.210e-02   -8.787e-03   -1.472e-03   7.536e-04    4.209e-04   /
#      CHEB/ -4.386e-05   -2.589e-02   3.322e-03    -8.273e-03   -6.819e-03  /
#      CHEB/ -3.647e-03   -2.345e-04   4.076e-04    7.863e-05    6.485e-03   /
#      CHEB/ 2.755e-02    4.228e-03    5.101e-04    -2.025e-03   -1.122e-03  /
#      CHEB/ -5.063e-05   1.320e-04    3.174e-02    2.576e-02    4.795e-03   /
#      CHEB/ 3.871e-03    9.636e-04    -7.577e-04   -4.280e-04   1.687e-05   /

# Reaction 5
chebyshev_reaction('bQOOHa (+ M) <=> bQOOHg (+ M)',
                   Tmin=180.0, Tmax=1500.0,
                   Pmin=(0.01, 'atm'), Pmax=(98.692, 'atm'),
                   coeffs=[[-1.56300e+01,  4.11600e+00, -1.80000e-01, -1.42300e-01,  7.02800e-02,  9.53400e-03, -2.16400e-02, -4.78600e-03],
                           [ 4.16700e+00, -1.11600e+00,  5.39300e-01,  1.43100e-01, -6.72100e-02, -3.13000e-03,  2.18800e-02,  3.56600e-03],
                           [-2.68400e+00,  2.27700e-01, -4.62300e-02, -2.05100e-02, -7.23600e-03, -3.75100e-03, -2.18600e-04,  8.11000e-04],
                           [-1.64000e+00, -1.61700e-01, -1.43000e-02,  1.10900e-02, -4.51400e-03, -6.43800e-03, -1.55100e-03,  7.32800e-04],
                           [-9.27600e-01, -3.23800e-01, -1.14500e-02,  3.80100e-02,  8.29600e-03, -2.20100e-03, -5.55100e-04,  1.09500e-04],
                           [-4.67800e-01, -1.82200e-01, -4.45100e-02,  4.52100e-03,  7.44300e-03,  3.26300e-03,  4.13300e-04, -2.60200e-04],
                           [-1.47800e-01, -1.08100e-01, -3.81200e-02, -5.97800e-03, -2.83100e-04,  5.64400e-04,  4.95700e-04,  1.24500e-04],
                           [-3.92200e-02,  2.48100e-02, -1.83300e-02, -1.43000e-02, -5.00800e-03,  5.06000e-04,  3.16300e-04, -1.22200e-04],
                           [ 3.91100e-02,  2.11700e-05,  3.29100e-03,  3.84700e-03, -1.66400e-03, -2.20200e-03, -3.76800e-04,  1.55300e-04],
                           [ 3.05600e-02,  3.18200e-02,  3.67600e-03,  2.18200e-03,  1.19200e-03, -2.87300e-04, -4.06900e-04, -4.26100e-05]])

# Reaction 6
chebyshev_reaction('bQOOH[O] (+ M) <=> bQOOHg (+ M)',
                   Tmin=180.0, Tmax=1500.0,
                   Pmin=(0.01, 'atm'), Pmax=(98.692, 'atm'),
                   coeffs=[[-5.69400e+00,  1.59500e+00,  4.00000e-02, -8.34700e-02, -2.25100e-02,  1.84300e-03,  3.83600e-03,  5.90700e-04],
                           [-1.16900e+00,  7.86500e-01,  6.30200e-02,  7.74100e-02,  3.75800e-02, -1.32700e-03, -8.70900e-03, -1.97400e-03],
                           [-2.78000e+00,  1.71600e-01, -9.29800e-02, -5.32200e-02, -2.02200e-03,  8.23700e-03,  4.52900e-03,  7.95200e-04],
                           [-1.74600e+00, -1.53100e-01, -1.89900e-02, -1.05600e-02, -1.23300e-02, -3.34200e-03,  9.93400e-04,  7.98200e-04],
                           [-9.72300e-01, -2.40500e-01,  1.50300e-02,  3.16400e-02,  1.66300e-04, -5.66000e-03, -1.86400e-03,  7.55700e-05],
                           [-4.23900e-01, -2.04600e-01, -1.72400e-02,  1.73900e-02,  7.23300e-03,  4.12900e-04, -8.17000e-04, -5.98600e-04],
                           [-2.04500e-01, -5.49000e-02, -3.26100e-02, -4.71200e-03,  1.20600e-03,  2.13100e-03,  8.83000e-04, -1.02200e-04],
                           [-3.27500e-02, -1.59000e-02, -1.61300e-02, -9.59900e-03, -3.26300e-03,  9.46600e-04,  1.01100e-03,  1.90200e-04],
                           [ 1.87700e-02,  1.70700e-02, -6.14200e-04, -2.95700e-03, -3.62700e-03, -1.47900e-03,  2.61100e-04,  4.81400e-04],
                           [ 3.40400e-02,  1.87500e-02,  3.54800e-03,  2.61500e-03,  2.75100e-04, -1.08300e-03, -7.10700e-04, -6.72200e-05]])

# Reaction 7
chebyshev_reaction('O2 + bR (+ M) <=> bQOOHg (+ M)',
                   Tmin=180.0, Tmax=1500.0,
                   Pmin=(0.01, 'atm'), Pmax=(98.692, 'atm'),
                   coeffs=[[ 5.72800e+00,  1.90900e+00, -6.48100e-01, -4.61200e-02,  1.75400e-02,  2.91200e-02, -1.02800e-02, -5.46100e-03],
                           [-2.55900e+00,  1.65600e+00,  2.80200e-01,  1.28400e-02, -2.88500e-02, -2.87500e-02,  1.66500e-02,  4.79800e-03],
                           [-1.89800e+00,  2.06600e-01,  1.93400e-01,  2.96200e-02,  1.50000e-02, -1.23300e-02, -3.77000e-03,  2.34200e-03],
                           [-1.16100e+00, -2.52500e-01,  4.34300e-02,  1.28600e-02,  1.95700e-02,  5.00000e-04, -3.77800e-03, -5.37900e-04],
                           [-5.85900e-01, -2.28500e-01, -1.85200e-02, -1.26700e-02,  8.13000e-03,  4.59700e-03, -1.85300e-04, -9.02400e-04],
                           [-2.47500e-01, -1.11100e-01, -1.51100e-02, -2.09600e-02, -1.28600e-03,  2.83200e-03,  1.01500e-03, -1.29400e-04],
                           [-7.41500e-02, -3.12300e-02,  7.95400e-03, -1.51500e-02, -5.54900e-03,  4.90300e-04,  8.31900e-04,  2.35100e-04],
                           [-5.59700e-03,  1.98800e-03,  2.02000e-02, -3.65600e-03, -5.19000e-03, -1.05300e-03,  2.97900e-04,  2.71700e-04],
                           [ 1.45600e-02,  4.22400e-03,  1.78300e-02,  4.90400e-03, -1.67300e-03, -1.57700e-03, -3.24800e-04,  2.44700e-04],
                           [ 9.85500e-03,  1.32100e-03,  7.08500e-03,  6.97900e-03,  1.48100e-03, -7.72500e-04, -5.78300e-04,  5.18800e-05]])
#  bRO2(+M) <=> bQOOHa(+M)                             1.000e+00 0.000     0.000
#      TCHEB/ 180.000   1500.000 /
#      PCHEB/ 0.010     98.692   /
#      CHEB/ 10 8/
#      CHEB/ -7.629e+00   4.557e+00    -4.971e-01   -1.957e-01   8.046e-02   /
#      CHEB/ 2.341e-02    -1.534e-02   -3.513e-03   3.411e+00    -2.017e+00  /
#      CHEB/ 7.421e-01    2.349e-01    -7.876e-02   -2.325e-02   1.295e-02   /
#      CHEB/ 1.676e-03    -2.837e+00   -1.248e-01   -3.062e-02   9.630e-03   /
#      CHEB/ 8.215e-04    -7.317e-04   7.587e-04    4.064e-04    -1.267e+00  /
#      CHEB/ -7.291e-02   -7.052e-02   -1.769e-02   -2.872e-03   -1.432e-03  /
#      CHEB/ 1.574e-04    8.086e-04    -5.421e-01   -9.404e-02   -3.828e-02  /
#      CHEB/ -4.006e-03   -1.379e-04   -1.254e-03   9.631e-05    5.241e-04   /
#      CHEB/ -3.366e-01   -9.439e-03   -2.404e-02   -9.937e-03   2.019e-03   /
#      CHEB/ 2.633e-03    2.741e-04    -3.045e-04   -1.039e-01   -5.779e-02  /
#      CHEB/ -1.762e-02   -9.018e-04   1.083e-03    3.398e-04    2.893e-04   /
#      CHEB/ 8.727e-05    -9.858e-02   2.304e-02    -8.906e-03   -7.645e-03  /
#      CHEB/ -1.223e-03   1.128e-03    9.626e-05    -2.731e-04   2.437e-02   /
#      CHEB/ -2.373e-02   -1.710e-03   2.027e-03    -4.150e-04   -1.211e-03  /
#      CHEB/ -1.347e-04   1.810e-04    -8.720e-03   2.452e-02    3.604e-03   /
#      CHEB/ -1.828e-03   -7.357e-04   -6.006e-05   -6.695e-05   -2.799e-05  /
#  bQOOHg(+M) <=> bQOOHa(+M)                           1.000e+00 0.000     0.000
#      TCHEB/ 180.000   1500.000 /
#      PCHEB/ 0.010     98.692   /
#      CHEB/ 10 8/
#      CHEB/ -1.245e+01   4.116e+00    -1.800e-01   -1.423e-01   7.028e-02   /
#      CHEB/ 9.534e-03    -2.164e-02   -4.786e-03   1.437e+00    -1.116e+00  /
#      CHEB/ 5.393e-01    1.431e-01    -6.721e-02   -3.130e-03   2.188e-02   /
#      CHEB/ 3.566e-03    -2.775e+00   2.277e-01    -4.623e-02   -2.051e-02  /
#      CHEB/ -7.236e-03   -3.751e-03   -2.186e-04   8.110e-04    -1.676e+00  /
#      CHEB/ -1.617e-01   -1.430e-02   1.109e-02    -4.514e-03   -6.438e-03  /
#      CHEB/ -1.551e-03   7.328e-04    -9.382e-01   -3.238e-01   -1.145e-02  /
#      CHEB/ 3.801e-02    8.296e-03    -2.201e-03   -5.551e-04   1.095e-04   /
#      CHEB/ -4.705e-01   -1.822e-01   -4.451e-02   4.521e-03    7.443e-03   /
#      CHEB/ 3.263e-03    4.133e-04    -2.602e-04   -1.485e-01   -1.081e-01  /
#      CHEB/ -3.812e-02   -5.978e-03   -2.831e-04   5.644e-04    4.957e-04   /
#      CHEB/ 1.245e-04    -3.949e-02   2.481e-02    -1.833e-02   -1.430e-02  /
#      CHEB/ -5.008e-03   5.060e-04    3.163e-04    -1.222e-04   3.909e-02   /
#      CHEB/ 2.117e-05    3.291e-03    3.847e-03    -1.664e-03   -2.202e-03  /
#      CHEB/ -3.768e-04   1.553e-04    3.063e-02    3.182e-02    3.676e-03   /
#      CHEB/ 2.182e-03    1.192e-03    -2.873e-04   -4.069e-04   -4.261e-05  /

# Reaction 8
chebyshev_reaction('bQOOH[O] (+ M) <=> bQOOHa (+ M)',
                   Tmin=180.0, Tmax=1500.0,
                   Pmin=(0.01, 'atm'), Pmax=(98.692, 'atm'),
                   coeffs=[[-6.97900e+00,  4.78600e+00, -3.25200e-01, -1.76200e-01,  5.86200e-02,  1.38500e-02, -1.56700e-02, -2.51700e-03],
                           [-4.09100e+00, -1.91700e+00,  6.79100e-01,  2.34200e-01, -6.11900e-02, -1.54600e-02,  1.41400e-02,  9.47300e-04],
                           [-3.23000e+00, -4.73000e-01, -1.70000e-01, -2.12700e-02, -1.88300e-03,  8.63800e-04,  1.93000e-03,  1.13400e-03],
                           [-1.46900e+00, -1.08500e-01, -8.24000e-02, -2.23900e-02, -5.41900e-03, -3.51300e-03, -7.81100e-04,  6.94700e-04],
                           [-6.01300e-01, -5.72300e-02, -1.05100e-02,  8.91600e-03,  3.70000e-03, -1.35200e-03, -6.86500e-04,  9.87100e-05],
                           [-2.93100e-01, -3.00000e-02, -1.95900e-02, -3.15800e-03,  4.89900e-03,  3.59100e-03,  2.97700e-04, -3.58000e-04],
                           [-1.42600e-01, -5.08000e-02, -2.08800e-02, -2.75400e-03,  1.14100e-03,  6.55700e-05,  3.05300e-04,  2.21600e-04],
                           [-8.16500e-02,  5.67100e-03, -1.73700e-02, -8.53600e-03, -1.01800e-03,  1.13700e-03, -5.54900e-05, -3.25700e-04],
                           [ 3.31800e-02, -3.30000e-02, -6.28900e-03, -1.45200e-05, -1.56300e-04, -8.00900e-04, -1.29900e-04,  1.33600e-04],
                           [ 7.34400e-03,  2.28300e-02, -1.04700e-03, -2.59900e-03, -2.01900e-04,  4.14200e-04, -2.32600e-05, -1.09800e-04]])

# Reaction 9
chebyshev_reaction('O2 + bR (+ M) <=> bQOOHa (+ M)',
                   Tmin=180.0, Tmax=1500.0,
                   Pmin=(0.01, 'atm'), Pmax=(98.692, 'atm'),
                   coeffs=[[ 4.35500e-01,  4.68400e+00, -4.98600e-01,  4.96000e-02,  6.68400e-02,  2.41300e-02, -1.64100e-02, -5.05900e-03],
                           [-2.31300e+00, -1.25300e+00,  3.77900e-01,  7.78700e-02, -7.78200e-02, -3.42900e-02,  1.79800e-02,  4.39100e-03],
                           [-2.14500e+00,  1.74200e-01,  1.01500e-02, -4.84600e-02,  5.57700e-03, -2.36600e-03, -1.73400e-04,  1.02400e-03],
                           [-1.15400e+00,  7.30100e-03,  6.45300e-02, -1.01400e-02,  2.31600e-03, -6.43800e-04, -1.11300e-03,  3.11600e-04],
                           [-5.68500e-01, -1.23600e-01,  4.88500e-02,  1.40200e-02,  2.56200e-03, -6.61900e-04, -3.39700e-04,  2.75700e-04],
                           [-3.15900e-01, -8.07900e-02,  7.29500e-03,  1.25400e-03,  2.42700e-03,  2.36200e-03,  1.27400e-04, -3.06200e-04],
                           [-1.05300e-01, -1.14700e-01, -1.17700e-02,  4.31900e-03,  4.57600e-04, -4.14600e-04,  1.53100e-04,  1.66800e-04],
                           [-5.53100e-02, -1.97800e-02, -1.90100e-02, -5.09400e-03, -5.91600e-04,  8.54600e-04, -1.89200e-05, -2.29500e-04],
                           [ 3.79300e-02, -3.76700e-02, -1.14600e-02,  2.39200e-03,  7.93100e-04, -1.13000e-03, -2.82100e-04,  1.38900e-04],
                           [ 1.96800e-02,  2.06000e-02, -7.56500e-03, -2.98300e-03,  7.35600e-04,  4.49000e-04, -1.32300e-04, -1.04700e-04]])
#  bRO2(+M) <=> bQOOH[O](+M)                           1.000e+00 0.000     0.000
#      TCHEB/ 180.000   1500.000 /
#      PCHEB/ 0.010     98.692   /
#      CHEB/ 10 8/
#      CHEB/ -4.414e+00   1.659e+00    -8.162e-02   -1.957e-02   -3.558e-03  /
#      CHEB/ 8.419e-04    2.356e-04    6.943e-05    2.959e+00    3.696e-01   /
#      CHEB/ 5.704e-02    1.972e-02    6.030e-03    -9.870e-04   -8.480e-04  /
#      CHEB/ -2.478e-04   -2.935e+00   -2.056e-01   -6.509e-02   -4.562e-03  /
#      CHEB/ 3.329e-03    2.107e-03    4.021e-04    -3.400e-05   -1.455e+00  /
#      CHEB/ -8.811e-02   -3.532e-02   -1.083e-02   -1.890e-03   -3.980e-04  /
#      CHEB/ -6.424e-05   6.464e-05    -6.786e-01   -5.435e-02   -1.308e-02  /
#      CHEB/ -9.722e-04   1.112e-03    1.191e-04    -2.546e-04   -1.367e-04  /
#      CHEB/ -3.038e-01   -7.184e-02   -1.621e-02   -7.683e-04   1.129e-03   /
#      CHEB/ 9.346e-04    2.089e-04    -6.704e-06   -1.767e-01   -2.445e-02  /
#      CHEB/ -1.435e-02   -4.510e-03   7.627e-05    1.037e-04    1.294e-04   /
#      CHEB/ 6.104e-05    -6.470e-02   -1.792e-02   -9.411e-03   -2.127e-03  /
#      CHEB/ -5.034e-04   -3.365e-05   -3.746e-05   -3.793e-05   3.619e-03   /
#      CHEB/ -4.677e-03   -4.659e-03   -2.458e-03   -1.904e-04   1.977e-04   /
#      CHEB/ 1.005e-05    -8.125e-06   9.356e-03    1.639e-02    -3.913e-04  /
#      CHEB/ -8.549e-04   -3.078e-04   4.284e-05    2.493e-05    -3.673e-06  /
#  bQOOHg(+M) <=> bQOOH[O](+M)                         1.000e+00 0.000     0.000
#      TCHEB/ 180.000   1500.000 /
#      PCHEB/ 0.010     98.692   /
#      CHEB/ 10 8/
#      CHEB/ -8.224e+00   1.595e+00    4.000e-02    -8.347e-02   -2.251e-02  /
#      CHEB/ 1.843e-03    3.836e-03    5.907e-04    1.432e-01    7.865e-01   /
#      CHEB/ 6.302e-02    7.741e-02    3.758e-02    -1.327e-03   -8.709e-03  /
#      CHEB/ -1.974e-03   -2.931e+00   1.716e-01    -9.298e-02   -5.322e-02  /
#      CHEB/ -2.022e-03   8.237e-03    4.529e-03    7.952e-04    -1.804e+00  /