units(length='cm', time='s', quantity='mol', act_energy='kcal/mol')

ideal_gas(name='gas',
          elements="H D T C Ci O Oi N Ne Ar He Si S F Cl Br I X",
          species="""propene3ol       OH               disub_c4ether
                     H2O              disub_epoxy      gQOOHa
                     propene1ol       gQOOHb           ipropylOOH
                     galdoxy          galkene          CH2O
                     O2               gRO2             gQOOHg
                     gR               galdol           monosub_c4ether
                     HO2              gQOOH[O]""",
          reactions='all',
          initial_state=state(temperature=300.0, pressure=OneAtm))

#-------------------------------------------------------------------------------
# Element data
#-------------------------------------------------------------------------------

element(symbol='Ci', atomic_mass=13.003)
element(symbol='D', atomic_mass=2.014)
element(symbol='Oi', atomic_mass=18.0)
element(symbol='T', atomic_mass=3.016)
element(symbol='X', atomic_mass=195.083)
#-------------------------------------------------------------------------------
# Species data
#-------------------------------------------------------------------------------

species(name='propene3ol',
        atoms='C:3 H:6 O:1',
        thermo=(NASA([10.00, 444.81],
                     [ 3.92769709E+00,  4.89977303E-03,  1.13094874E-04,
                      -2.59008187E-07,  1.86205760E-10, -1.54319636E+04,
                       9.90805416E+00]),
                NASA([444.81, 3000.00],
                     [ 2.61720343E+00,  3.01777872E-02, -1.76511625E-05,
                       5.14864061E-09, -5.91153761E-13, -1.54488641E+04,
                       1.36683107E+01])))

species(name='OH',
        atoms='H:1 O:1',
        thermo=(NASA([10.00, 984.14],
                     [ 3.49686242E+00,  1.83973160E-04, -9.97634499E-07,
                       1.56942783E-09, -6.10128175E-13,  3.41673934E+03,
                       1.48093120E+00]),
                NASA([984.14, 3000.00],
                     [ 3.45221464E+00, -2.95124034E-04,  7.39418622E-07,
                      -2.89309866E-10,  3.53041498E-14,  3.45751599E+03,
                       1.85813897E+00])))

species(name='disub_c4ether',
        atoms='C:4 H:8 O:2',
        thermo=(NASA([10.00, 413.50],
                     [ 3.78241323E+00,  1.89501763E-02,  8.65302396E-05,
                      -1.80580575E-07,  1.13656264E-10, -3.95448387E+04,
                       1.09982450E+01]),
                NASA([413.50, 3000.00],
                     [ 4.29420885E-01,  5.13851903E-02, -3.11292293E-05,
                       9.11498284E-09, -1.03192718E-12, -3.92675444E+04,
                       2.42134976E+01])))

species(name='H2O',
        atoms='H:2 O:1',
        thermo=(NASA([10.00, 773.84],
                     [ 4.00473541E+00, -2.39729134E-04,  8.11862955E-07,
                       1.47891862E-09, -1.19783539E-12, -3.03533807E+04,
                      -9.96254147E-02]),
                NASA([773.84, 3000.00],
                     [ 3.52133374E+00,  1.05377009E-03,  6.40722099E-07,
                      -3.86240235E-10,  5.49243294E-14, -3.02424794E+04,
                       2.34173094E+00])))

species(name='disub_epoxy',
        atoms='C:4 H:8 O:2',
        thermo=(NASA([10.00, 549.41],
                     [ 3.89863211E+00,  5.97532637E-03,  1.66685676E-04,
                      -3.10743768E-07,  1.78330192E-10, -3.71578615E+04,
                       1.13847308E+01]),
                NASA([549.41, 3000.00],
                     [-6.40277648E-01,  6.05960003E-02, -4.13427220E-05,
                       1.31555461E-08, -1.57685017E-12, -3.69847446E+04,
                       2.76005436E+01])))

species(name='gQOOHa',
        atoms='C:4 H:9 O:3',
        thermo=(NASA([10.00, 160.74],
                     [ 3.80808147E+00,  2.31043884E-02,  5.26945984E-04,
                      -3.11500696E-06,  6.03881958E-09, -2.59489986E+04,
                       1.17645316E+01]),
                NASA([160.74, 3000.00],
                     [ 2.90630300E+00,  6.50241173E-02, -4.60073244E-05,
                       1.51330930E-08, -1.87074267E-12, -2.59451740E+04,
                       1.36838819E+01])))

species(name='propene1ol',
        atoms='C:3 H:6 O:1',
        thermo=(NASA([10.00, 459.42],
                     [ 3.91245344E+00,  5.85800161E-03,  1.15412006E-04,
                      -2.68014417E-07,  1.91800131E-10, -1.71251282E+04,
                       8.14807684E+00]),
                NASA([459.42, 3000.00],
                     [ 3.14049093E+00,  2.95550898E-02, -1.73843684E-05,
                       5.11506211E-09, -5.92966137E-13, -1.72333507E+04,
                       9.32215170E+00])))

species(name='gQOOHb',
        atoms='C:4 H:9 O:3',
        thermo=(NASA([10.00, 1018.67],
                     [ 3.99028351E+00,  4.29665712E-02,  2.28338778E-05,
                      -5.67914439E-08,  2.29383258E-11, -2.52254342E+04,
                       1.20326731E+01]),
                NASA([1018.67, 3000.00],
                     [ 1.38304153E+01,  3.88527019E-02, -2.19473905E-05,
                       5.78719895E-09, -5.85097740E-13, -2.90215190E+04,
                      -4.44147388E+01])))

species(name='ipropylOOH',
        atoms='C:3 H:7 O:2',
        thermo=(NASA([10.00, 405.01],
                     [ 3.30075623E+00,  7.58672756E-02, -3.35754269E-04,
                       8.05972164E-07, -6.68864582E-10,  1.28415948E+03,
                       1.43372849E+01]),
                NASA([405.01, 3000.00],
                     [ 2.51742509E+00,  3.72760950E-02, -2.12450220E-05,
                       5.83593926E-09, -6.22110649E-13,  1.72756709E+03,
                       2.20991392E+01])))

species(name='galdoxy',
        atoms='C:4 H:7 O:2',
        thermo=(NASA([10.00, 209.62],
                     [ 3.82641108E+00,  1.84758886E-02,  3.43073800E-04,
                      -1.82817005E-06,  2.98516720E-09, -1.69239475E+04,
                       1.17972706E+01]),
                NASA([209.62, 3000.00],
                     [ 4.22049016E+00,  4.03370149E-02, -2.36129482E-05,
                       6.72979114E-09, -7.47862493E-13, -1.70050173E+04,
                       8.97211724E+00])))

species(name='galkene',
        atoms='C:4 H:8 O:1',
        thermo=(NASA([10.00, 383.47],
                     [ 3.84035604E+00,  1.20378740E-02,  1.87486319E-04,
                      -5.44759148E-07,  4.80711015E-10, -2.02261141E+04,
                       1.02570291E+01]),
                NASA([383.47, 3000.00],
                     [ 4.00413385E+00,  3.79025144E-02, -2.15435710E-05,
                       6.15213311E-09, -6.97446345E-13, -2.04414034E+04,
                       6.98052628E+00])))

species(name='CH2O',
        atoms='C:1 H:2 O:1',
        thermo=(NASA([10.00, 601.31],
                     [ 4.03190845E+00, -1.93233367E-03,  8.89743345E-06,
                       2.98105926E-09, -7.90813886E-12, -1.42276270E+04,
                       3.47574660E+00]),
                NASA([601.31, 3000.00],
                     [ 1.40134195E+00,  9.48858016E-03, -4.43088317E-06,
                       9.48452194E-10, -7.43790219E-14, -1.38013869E+04,
                       1.57423780E+01])))

species(name='O2',
        atoms='O:2',
        thermo=(NASA([10.00, 605.96],
                     [ 3.50743498E+00, -4.43860349E-04,  1.45938058E-06,
                       1.61509333E-09, -2.32050052E-12, -9.24756224E+02,
                       4.72183634E+00]),
                NASA([605.96, 3000.00],
                     [ 2.87462882E+00,  2.17840991E-03, -1.18262921E-06,
                       2.86910493E-10, -2.53297146E-14, -8.19517838E+02,
                       7.69331810E+00])))

species(name='gRO2',
        atoms='C:4 H:9 O:3',
        thermo=(NASA([10.00, 177.33],
                     [ 3.70632176E+00,  3.49733664E-02,  4.64036392E-04,
                      -3.18637835E-06,  6.38178607E-09, -2.73133244E+04,
                       1.24459269E+01]),
                NASA([177.33, 3000.00],
                     [ 4.82062697E+00,  5.17179689E-02, -3.18386818E-05,
                       9.52247045E-09, -1.10180288E-12, -2.74186950E+04,
                       7.14082953E+00])))

species(name='gQOOHg',
        atoms='C:4 H:9 O:3',
        thermo=(NASA([10.00, 475.03],
                     [ 3.42273720E+00,  4.98344215E-02,  6.47820920E-05,
                      -2.49842966E-07,  1.98636537E-10, -2.23131941E+04,
                       1.41578583E+01]),
                NASA([475.03, 3000.00],
                     [ 5.94049074E+00,  5.53778585E-02, -3.71708255E-05,
                       1.17540477E-08, -1.40812095E-12, -2.28541484E+04,
                       7.09201218E-01])))

species(name='gR',
        atoms='C:4 H:9 O:1',
        thermo=(NASA([10.00, 638.24],
                     [ 3.37074633E+00,  5.17529751E-02, -6.54872940E-05,
                       6.88084237E-08, -3.21569794E-11, -1.16438563E+04,
                       1.14339669E+01]),
                NASA([638.24, 3000.00],
                     [ 3.99410860E+00,  4.06314915E-02, -2.23932510E-05,
                       6.08356263E-09, -6.49884708E-13, -1.15764816E+04,
                       9.85769960E+00])))

species(name='galdol',
        atoms='C:4 H:8 O:2',
        thermo=(NASA([10.00, 506.68],
                     [ 3.85380874E+00,  9.21272695E-03,  1.86712348E-04,
                      -3.96417049E-07,  2.55528268E-10, -4.77212860E+04,
                       1.24312743E+01]),
                NASA([506.68, 3000.00],
                     [ 1.49710213E+00,  5.65979142E-02, -3.87709084E-05,
                       1.23682052E-08, -1.48287964E-12, -4.78518954E+04,
                       1.85531759E+01])))

species(name='monosub_c4ether',
        atoms='C:4 H:8 O:2',
        thermo=(NASA([10.00, 380.36],
                     [ 3.47743996E+00,  6.08051311E-02, -2.78518945E-04,
                       8.23182713E-07, -7.87158031E-10, -3.18005048E+04,
                       1.06415154E+01]),
                NASA([380.36, 3000.00],
                     [-1.09346901E+00,  5.35985968E-02, -3.21081420E-05,
                       9.20818293E-09, -1.01830294E-12, -3.10529448E+04,
                       3.35312368E+01])))

species(name='HO2',
        atoms='H:1 O:2',
        thermo=(NASA([10.00, 891.11],
                     [ 4.02887004E+00, -1.75769289E-03,  1.08726004E-05,
                      -1.13812972E-08,  3.90113097E-12,  4.95165001E+02,
                       4.69302008E+00]),
                NASA([891.11, 3000.00],
                     [ 3.06571044E+00,  4.28505005E-03, -2.19325920E-06,
                       5.58882699E-10, -5.61246669E-14,  5.98557610E+02,
                       8.84564156E+00])))

species(name='gQOOH[O]',
        atoms='C:4 H:9 O:3',
        thermo=(NASA([10.00, 535.23],
                     [ 3.83107445E+00,  1.02302002E-02,  2.29377261E-04,
                      -4.59095575E-07,  2.77765018E-10, -1.68448960E+04,
                       1.41034859E+01]),
                NASA([535.23, 3000.00],
                     [-4.19283096E-01,  7.69784620E-02, -5.57279000E-05,
                       1.81378295E-08, -2.18295635E-12, -1.68910093E+04,
                       2.72711816E+01])))

#-------------------------------------------------------------------------------
# Reaction data
#-------------------------------------------------------------------------------

# Reaction 1
chebyshev_reaction('gQOOH[O] (+ M) <=> gRO2 (+ M)',
                   Tmin=180.0, Tmax=1500.0,
                   Pmin=(0.01, 'atm'), Pmax=(98.692, 'atm'),
                   coeffs=[[ 5.21900e+00,  2.02000e+00, -1.25200e-02, -6.40300e-03, -2.29000e-03, -4.25900e-04,  5.07500e-05,  6.60400e-05],
                           [-5.74200e+00,  9.58400e-02,  1.55000e-02,  6.07800e-03,  1.46200e-03,  5.56100e-05, -1.76700e-04, -9.73300e-05],
                           [-3.12200e+00,  4.24100e-02, -4.06100e-03, -3.03400e-03, -1.51600e-03, -4.42500e-04, -6.71200e-05,  1.11900e-05],
                           [-1.59000e+00,  1.43100e-02, -3.37100e-03, -2.11500e-03, -1.01000e-03, -2.46000e-04, -1.51500e-05,  1.37700e-05],
                           [-8.52600e-01, -8.35700e-03, -1.56500e-03, -6.17700e-04, -4.80800e-04, -1.62000e-04, -3.17100e-05,  9.89500e-07],
                           [-4.61100e-01, -2.69700e-02, -3.50100e-03, -6.38000e-04, -3.67800e-04, -1.14600e-04, -1.75900e-05,  3.69300e-06],
                           [-2.20000e-01, -3.43800e-02, -6.03300e-03, -1.10800e-03, -3.98800e-04, -9.99900e-05, -5.34700e-06,  9.24600e-06],
                           [-1.20700e-01, -2.71900e-02, -5.35300e-03, -5.05700e-04, -7.22500e-05, -1.89400e-05, -5.66500e-06, -7.65700e-07],
                           [-1.09300e-02, -1.81700e-02, -6.44200e-03, -1.36900e-03, -3.00300e-04, -4.85400e-05,  5.48100e-06,  8.68700e-06],
                           [-1.00700e-02, -2.26300e-03, -2.78500e-03, -4.65400e-04, -2.94700e-05, -1.11500e-05, -1.32900e-05, -6.26100e-06]])

# Reaction 2
chebyshev_reaction('gQOOHa (+ M) <=> gRO2 (+ M)',
                   Tmin=180.0, Tmax=1500.0,
                   Pmin=(0.01, 'atm'), Pmax=(98.692, 'atm'),
                   coeffs=[[-1.95700e+00,  6.63200e-01, -3.69800e-02,  2.01500e-02, -2.26900e-03, -6.87400e-04,  2.42700e-04, -3.40900e-05],
                           [ 4.64200e+00,  1.11200e+00, -2.03600e-02,  2.48200e-02, -8.10500e-04, -1.69100e-03,  3.23800e-04, -3.81800e-05],
                           [-2.51600e+00,  6.32200e-01,  7.03400e-02,  3.80500e-03,  2.95600e-03, -1.24200e-03, -2.07800e-04,  1.65500e-05],
                           [-2.05400e+00,  1.69600e-01,  1.03300e-01,  3.29800e-03,  1.71000e-03, -1.68200e-04, -5.64900e-04, -3.66900e-05],
                           [-1.34500e+00, -1.15400e-01,  6.52300e-02,  1.56900e-02, -2.36400e-04,  5.46000e-05, -4.38800e-04, -1.24100e-04],
                           [-6.95500e-01, -2.14600e-01,  2.62000e-03,  2.10400e-02,  1.14500e-03, -5.36300e-04, -1.77300e-04, -9.09200e-05],
                           [-3.22500e-01, -1.88000e-01, -4.30100e-02,  1.33800e-02,  3.93900e-03, -6.20100e-04, -1.03800e-04,  2.42800e-05],
                           [-7.98200e-02, -1.04400e-01, -5.73900e-02, -3.01300e-04,  4.74500e-03,  2.53200e-04, -7.68900e-05,  6.33400e-05],
                           [ 8.98900e-03, -1.83000e-02, -4.57100e-02, -1.11800e-02,  2.74600e-03,  1.34900e-03,  1.13400e-04, -1.44700e-05],
                           [ 5.24800e-02,  3.83100e-02, -2.08000e-02, -1.48000e-02, -4.48300e-04,  1.77700e-03,  4.02900e-04, -1.15400e-04]])

# Reaction 3
chebyshev_reaction('gQOOHg (+ M) <=> gRO2 (+ M)',
                   Tmin=180.0, Tmax=1500.0,
                   Pmin=(0.01, 'atm'), Pmax=(98.692, 'atm'),
                   coeffs=[[ 4.69400e-01,  5.19600e-01,  8.54700e-03,  5.29500e-03, -5.44000e-04, -2.14500e-04, -1.06300e-04, -2.26100e-05],
                           [ 3.35600e+00,  8.85600e-01,  3.65200e-02,  8.60800e-03, -5.11600e-04, -5.03200e-04, -1.95400e-04, -3.70500e-05],
                           [-2.11100e+00,  5.18000e-01,  7.14000e-02,  6.73000e-03,  3.60800e-04, -5.26800e-04, -1.76200e-04, -1.39200e-05],
                           [-1.70500e+00,  1.32900e-01,  8.08100e-02,  9.72400e-03,  7.71200e-04, -3.56300e-04, -1.58100e-04,  7.58200e-06],
                           [-1.13700e+00, -1.20000e-01,  5.11900e-02,  1.48300e-02,  1.37000e-03, -1.20000e-04, -1.10400e-04,  1.08000e-05],
                           [-6.27000e-01, -2.08800e-01,  3.18300e-03,  1.53100e-02,  2.75800e-03,  1.27900e-04, -4.56200e-05, -5.74900e-06],
                           [-2.95600e-01, -1.84500e-01, -3.47900e-02,  8.69400e-03,  4.14100e-03,  5.21000e-04, -1.39600e-06, -3.88800e-05],
                           [-1.13800e-01, -1.13900e-01, -4.90200e-02, -1.37600e-03,  4.18000e-03,  1.06100e-03,  3.30600e-05, -8.61100e-05],
                           [-2.05400e-02, -4.25400e-02, -4.21300e-02, -9.55000e-03,  2.46000e-03,  1.45700e-03,  1.02900e-04, -1.29900e-04],
                           [ 3.77600e-02,  8.89700e-03, -2.40200e-02, -1.27100e-02, -2.50700e-04,  1.35900e-03,  2.10900e-04, -1.32500e-04]])

# Reaction 4
chebyshev_reaction('gQOOHb (+ M) <=> gRO2 (+ M)',
                   Tmin=180.0, Tmax=1500.0,
                   Pmin=(0.01, 'atm'), Pmax=(98.692, 'atm'),
                   coeffs=[[-4.05600e+00,  1.03000e+00, -2.76200e-02, -1.54700e-02,  7.33300e-04,  1.26700e-03, -2.83900e-06, -1.18500e-04],
                           [ 3.83600e+00,  1.60500e+00, -2.12900e-03, -2.20400e-02,  5.31800e-04,  1.44100e-03,  8.30200e-05, -1.34900e-04],
                           [-2.11500e+00,  6.60300e-01,  6.88900e-02,  4.98500e-03, -2.03400e-03, -4.73700e-04,  1.46200e-04,  6.50600e-05],
                           [-1.66600e+00, -6.17600e-02,  6.11800e-02,  2.77300e-02, -1.31600e-03, -1.67300e-03,  6.73900e-05,  1.54000e-04],
                           [-1.16300e+00, -2.83800e-01,  7.51700e-04,  2.41000e-02,  2.54200e-03, -9.99700e-04, -1.21300e-04,  7.29000e-05],
                           [-5.94400e-01, -1.96200e-01, -3.96100e-02,  3.22900e-03,  3.90200e-03,  6.84400e-04, -1.08400e-04, -6.10300e-05],
                           [-2.74900e-01, -6.62200e-02, -3.87400e-02, -1.08800e-02,  1.20700e-03,  1.29600e-03,  1.35200e-04, -7.34500e-05],
                           [-5.42200e-02, -1.71800e-03, -1.96900e-02, -1.04100e-02, -1.55800e-03,  3.83900e-04,  2.32700e-04,  3.15400e-05],
                           [-1.89700e-02,  1.57300e-02, -4.46600e-03, -3.68400e-03, -1.87200e-03, -5.93700e-04,  3.53700e-05,  8.68400e-05],
                           [ 3.88800e-02,  1.99200e-02,  2.96600e-03,  7.33700e-04, -7.10300e-04, -6.85500e-04, -1.67800e-04,  2.54100e-05]])

# Reaction 5
chebyshev_reaction('O2 + gR (+ M) <=> gRO2 (+ M)',
                   Tmin=180.0, Tmax=1500.0,
                   Pmin=(0.01, 'atm'), Pmax=(98.692, 'atm'),
                   coeffs=[[ 1.28200e+01,  6.36200e-01, -5.67900e-02,  4.15400e-03, -4.79900e-04, -2.00800e-05,  1.79100e-05, -3.02600e-06],
                           [-2.74600e+00,  9.53700e-01, -2.73700e-02, -7.67600e-03,  1.08300e-03, -4.37300e-05, -4.09900e-05,  8.72300e-06],
                           [-1.73900e+00,  4.53800e-01,  4.64000e-02, -6.10800e-03, -1.05000e-03,  2.14600e-04,  8.41600e-06, -1.17900e-05],
                           [-1.07900e+00,  1.23900e-01,  4.48400e-02,  4.15900e-03, -1.10200e-03, -2.03800e-04,  4.55800e-05,  6.31300e-06],
                           [-6.43800e-01, -1.88600e-02,  1.78200e-02,  6.34300e-03,  5.64900e-04, -2.16000e-04, -4.24800e-05,  9.56600e-06],
                           [-3.62300e-01, -5.91900e-02, -8.01900e-04,  3.11200e-03,  1.06800e-03,  1.03400e-04, -3.94700e-05, -1.05300e-05],
                           [-1.83400e-01, -5.73900e-02, -8.13700e-03,  2.25400e-04,  5.65300e-04,  2.02700e-04,  2.50300e-05, -8.39000e-06],
                           [-7.40500e-02, -4.09600e-02, -9.41900e-03, -1.05600e-03,  8.69100e-05,  1.04500e-04,  3.94500e-05,  5.01600e-06],
                           [-1.27700e-02, -2.12600e-02, -7.98200e-03, -1.44300e-03, -1.17500e-04,  1.48500e-05,  1.46300e-05,  6.59400e-06],
                           [ 1.58100e-02, -4.05100e-03, -5.12300e-03, -1.44400e-03, -2.06500e-04, -2.02100e-05, -3.74900e-06,  8.88700e-07]])
#  gRO2(+M) <=> gQOOH[O](+M)                           1.000e+00 0.000     0.000
#      TCHEB/ 180.000   1500.000 /
#      PCHEB/ 0.010     98.692   /
#      CHEB/ 10 8/
#      CHEB/ -9.410e+00   2.020e+00    -1.252e-02   -6.403e-03   -2.290e-03  /
#      CHEB/ -4.259e-04   5.075e-05    6.604e-05    5.107e+00    9.584e-02   /
#      CHEB/ 1.550e-02    6.078e-03    1.462e-03    5.561e-05    -1.767e-04  /
#      CHEB/ -9.733e-05   -2.949e+00   4.241e-02    -4.061e-03   -3.034e-03  /
#      CHEB/ -1.516e-03   -4.425e-04   -6.712e-05   1.119e-05    -1.465e+00  /
#      CHEB/ 1.431e-02    -3.371e-03   -2.115e-03   -1.010e-03   -2.460e-04  /
#      CHEB/ -1.515e-05   1.377e-05    -7.989e-01   -8.357e-03   -1.565e-03  /
#      CHEB/ -6.177e-04   -4.808e-04   -1.620e-04   -3.171e-05   9.895e-07   /
#      CHEB/ -4.421e-01   -2.697e-02   -3.501e-03   -6.380e-04   -3.678e-04  /
#      CHEB/ -1.146e-04   -1.759e-05   3.693e-06    -2.138e-01   -3.438e-02  /
#      CHEB/ -6.033e-03   -1.108e-03   -3.988e-04   -9.999e-05   -5.347e-06  /
#      CHEB/ 9.246e-06    -1.187e-01   -2.719e-02   -5.353e-03   -5.057e-04  /
#      CHEB/ -7.225e-05   -1.894e-05   -5.665e-06   -7.657e-07   -1.047e-02  /
#      CHEB/ -1.817e-02   -6.442e-03   -1.369e-03   -3.003e-04   -4.854e-05  /
#      CHEB/ 5.481e-06    8.687e-06    -1.010e-02   -2.263e-03   -2.785e-03  /
#      CHEB/ -4.654e-04   -2.947e-05   -1.115e-05   -1.329e-05   -6.261e-06  /

# Reaction 6
chebyshev_reaction('gQOOHa (+ M) <=> gQOOH[O] (+ M)',
                   Tmin=180.0, Tmax=1500.0,
                   Pmin=(0.01, 'atm'), Pmax=(98.692, 'atm'),
                   coeffs=[[-1.43900e+01,  7.04200e-01, -6.82000e-03,  3.72900e-02,  1.71900e-03,  1.02000e-03,  2.12700e-04, -1.67800e-04],
                           [ 5.26600e+00,  1.07000e+00, -1.94300e-02,  1.81900e-02, -2.59900e-03, -2.16200e-03,  5.18000e-04, -5.57000e-05],
                           [-2.91300e+00,  5.57400e-01,  4.34800e-02, -1.38900e-02, -4.15300e-03, -2.78500e-03, -3.06300e-04,  3.60000e-05],
                           [-1.95200e+00,  1.46600e-01,  1.00500e-01,  1.05600e-03, -1.27900e-03, -6.01600e-04, -7.63400e-04, -1.50600e-04],
                           [-1.23400e+00, -1.19200e-01,  7.44600e-02,  1.90100e-02, -3.36900e-04,  2.04800e-04, -4.49000e-04, -2.23200e-04],
                           [-6.70300e-01, -2.22400e-01,  9.18500e-03,  2.27800e-02,  1.30200e-03, -2.89200e-04, -4.95400e-05, -1.14700e-04],
                           [-2.61100e-01, -1.99400e-01, -4.19700e-02,  1.32900e-02,  3.42300e-03, -4.88900e-04,  2.71500e-05,  3.51500e-05],
                           [-1.10200e-01, -1.09100e-01, -5.49900e-02,  6.71900e-04,  4.52100e-03,  3.05200e-04, -1.66300e-05,  4.43200e-05],
                           [ 5.59800e-02, -2.61100e-02, -4.73000e-02, -1.18500e-02,  2.05500e-03,  1.26100e-03,  1.61000e-04, -1.52700e-05],
                           [ 1.06100e-02,  3.69600e-02, -1.90300e-02, -1.40500e-02, -4.26300e-04,  1.75800e-03,  4.23900e-04, -1.35000e-04]])

# Reaction 7
chebyshev_reaction('gQOOHg (+ M) <=> gQOOH[O] (+ M)',
                   Tmin=180.0, Tmax=1500.0,
                   Pmin=(0.01, 'atm'), Pmax=(98.692, 'atm'),
                   coeffs=[[-1.15400e+01,  5.88600e-01,  6.26200e-02,  2.92000e-02,  7.30000e-03,  1.39100e-03, -2.39400e-04, -2.46900e-04],
                           [ 3.30300e+00,  8.07200e-01,  6.79600e-03, -7.68600e-03, -5.45600e-03, -5.34300e-04,  3.66200e-04,  2.41500e-04],
                           [-2.20900e+00,  4.55600e-01,  4.72200e-02, -9.79300e-03, -7.31500e-03, -2.92600e-03, -8.41000e-04, -1.41500e-04],
                           [-1.63300e+00,  1.10600e-01,  8.14500e-02,  6.98400e-03, -1.11300e-03, -8.53500e-04, -3.53000e-04, -6.56100e-05],
                           [-1.06600e+00, -1.23900e-01,  6.19300e-02,  1.83300e-02,  2.25800e-03,  3.41900e-04, -3.43500e-05, -1.24300e-05],
                           [-5.83700e-01, -2.15600e-01,  9.35000e-03,  1.70200e-02,  2.94900e-03,  3.63500e-04,  1.93400e-05,  9.03200e-07],
                           [-2.33200e-01, -1.98700e-01, -3.58500e-02,  7.44800e-03,  3.36400e-03,  5.43700e-04,  8.95300e-05,  3.58700e-06],
                           [-1.47400e-01, -1.16400e-01, -4.48400e-02,  1.41400e-04,  4.25900e-03,  1.09300e-03,  9.80700e-07, -1.23700e-04],
                           [ 3.15800e-02, -5.22900e-02, -4.43700e-02, -1.07400e-02,  1.76400e-03,  1.38800e-03,  1.49600e-04, -1.07800e-04],
                           [-1.23400e-02,  8.15600e-03, -2.18700e-02, -1.16300e-02, -1.36700e-04,  1.39100e-03,  2.07100e-04, -1.52000e-04]])

# Reaction 8
chebyshev_reaction('gQOOHb (+ M) <=> gQOOH[O] (+ M)',
                   Tmin=180.0, Tmax=1500.0,
                   Pmin=(0.01, 'atm'), Pmax=(98.692, 'atm'),
                   coeffs=[[-1.67300e+01,  1.10500e+00, -3.09000e-02,  8.96800e-03,  1.52000e-03,  3.01200e-03,  1.67400e-04, -1.93400e-04],
                           [ 4.75400e+00,  1.56000e+00,  1.63000e-02, -2.79700e-02,  2.39300e-03,  5.75100e-04,  2.00000e-04, -9.29100e-05],
                           [-2.52800e+00,  5.43500e-01,  6.02300e-02, -1.82400e-02, -8.40800e-03, -2.30400e-03, -3.06000e-04,  1.31700e-04],
                           [-1.63100e+00, -8.98700e-02,  5.22100e-02,  2.35500e-02, -3.94500e-03, -2.83700e-03, -2.23500e-04,  1.32100e-04],
                           [-1.03600e+00, -2.66900e-01,  1.62700e-03,  2.89200e-02,  3.88000e-03, -1.21600e-03, -2.01200e-04,  9.16100e-05],
                           [-5.54700e-01, -1.96200e-01, -3.44100e-02,  6.80000e-03,  4.73900e-03,  9.73800e-04, -2.85500e-05, -3.15700e-05],
                           [-2.15800e-01, -8.32000e-02, -3.73900e-02, -1.00500e-02,  5.26700e-04,  1.37800e-03,  2.39700e-04, -4.63900e-05],
                           [-9.09200e-02, -1.23100e-02, -1.77000e-02, -1.03900e-02, -1.64800e-03,  2.54200e-04,  1.99800e-04,  4.05300e-05],
                           [ 2.90000e-02,  1.13300e-02, -7.05400e-03, -4.62000e-03, -2.20300e-03, -6.84200e-04, -4.38700e-05,  9.44400e-05],
                           [ 2.00700e-03,  1.96000e-02,  5.14000e-03,  8.38200e-04, -2.91900e-04, -6.87600e-04, -2.18200e-04,  1.61200e-05]])

# Reaction 9
chebyshev_reaction('O2 + gR (+ M) <=> gQOOH[O] (+ M)',
                   Tmin=180.0, Tmax=1500.0,
                   Pmin=(0.01, 'atm'), Pmax=(98.692, 'atm'),
                   coeffs=[[ 8.12600e-01,  7.41100e-01,  1.29500e-02,  4.01800e-02,  1.40200e-02,  4.46100e-03,  1.02600e-03,  1.50100e-04],
                           [-2.82600e+00,  8.59400e-01, -9.03700e-02, -4.03700e-02, -1.22300e-02, -4.23100e-03, -1.02100e-03, -1.51600e-04],
                           [-1.84800e+00,  4.16600e-01,  2.15700e-02, -1.89700e-02, -6.30800e-03, -1.46900e-03, -4.16500e-04, -1.04900e-04],
                           [-1.01500e+00,  1.25000e-01,  4.53300e-02,  4.25600e-03, -1.19600e-03, -2.93900e-04,  2.59000e-06, -2.32400e-06],
                           [-5.85300e-01, -1.30200e-02,  2.15000e-02,  8.13100e-03,  1.18900e-03, -5.87100e-05, -1.30700e-05,  2.18700e-05],
                           [-3.28100e-01, -5.60600e-02,  1.21700e-03,  4.16800e-03,  1.48600e-03,  2.38700e-04, -1.37700e-06,  3.04300e-06],
                           [-1.26900e-01, -6.09500e-02, -1.04600e-02, -8.75100e-04,  1.75700e-04,  1.14100e-04,  1.79800e-05, -5.64300e-06],
                           [-1.12300e-01, -3.68000e-02, -6.67400e-03,  3.79400e-04,  6.76000e-04,  3.02000e-04,  9.67700e-05,  2.24400e-05],
                           [ 3.45300e-02, -2.72500e-02, -1.20000e-02, -3.53300e-03, -9.79000e-04, -2.65600e-04, -5.82200e-05, -1.02300e-05],
                           [-3.56900e-02, -3.25200e-04, -2.59700e-03, -8.22400e-05,  3.86200e-04,  1.93400e-04,  6.23100e-05,  1.98000e-05]])
#  gRO2(+M) <=> gQOOHa(+M)                             1.000e+00 0.000     0.000
#      TCHEB/ 180.000   1500.000 /
#      PCHEB/ 0.010     98.692   /
#      CHEB/ 10 8/
#      CHEB/ -4.109e+00   6.632e-01    -3.698e-02   2.015e-02    -2.269e-03  /
#      CHEB/ -6.874e-04   2.427e-04    -3.409e-05   6.311e+00    1.112e+00   /
#      CHEB/ -2.036e-02   2.482e-02    -8.105e-04   -1.691e-03   3.238e-04   /
#      CHEB/ -3.818e-05   -2.354e+00   6.322e-01    7.034e-02    3.805e-03   /
#      CHEB/ 2.956e-03    -1.242e-03   -2.078e-04   1.655e-05    -1.980e+00  /
#      CHEB/ 1.696e-01    1.033e-01    3.298e-03    1.710e-03    -1.682e-04  /
#      CHEB/ -5.649e-04   -3.669e-05   -1.316e+00   -1.154e-01   6.523e-02   /
#      CHEB/ 1.569e-02    -2.364e-04   5.460e-05    -4.388e-04   -1.241e-04  /
#      CHEB/ -6.857e-01   -2.146e-01   2.620e-03    2.104e-02    1.145e-03   /
#      CHEB/ -5.363e-04   -1.773e-04   -9.092e-05   -3.196e-01   -1.880e-01  /
#      CHEB/ -4.301e-02   1.338e-02    3.939e-03    -6.201e-04   -1.038e-04  /
#      CHEB/ 2.428e-05    -7.919e-02   -1.044e-01   -5.739e-02   -3.013e-04  /
#      CHEB/ 4.745e-03    2.532e-04    -7.689e-05   6.334e-05    8.986e-03   /
#      CHEB/ -1.830e-02   -4.571e-02   -1.118e-02   2.746e-03    1.349e-03   /
#      CHEB/ 1.134e-04    -1.447e-05   5.236e-02    3.831e-02    -2.080e-02  /
#      CHEB/ -1.480e-02   -4.483e-04   1.777e-03    4.029e-04    -1.154e-04  /
#  gQOOH[O](+M) <=> gQOOHa(+M)                         1.000e+00 0.000     0.000
#      TCHEB/ 180.000   1500.000 /
#      PCHEB/ 0.010     98.692   /
#      CHEB/ 10 8/
#      CHEB/ -1.915e+00   7.042e-01    -6.820e-03   3.729e-02    1.719e-03   /
#      CHEB/ 1.020e-03    2.127e-04    -1.678e-04   -3.916e+00   1.070e+00   /
#      CHEB/ -1.943e-02   1.819e-02    -2.599e-03   -2.162e-03   5.180e-04   /
#      CHEB/ -5.570e-05   -2.924e+00   5.574e-01    4.348e-02    -1.389e-02  /
#      CHEB/ -4.153e-03   -2.785e-03   -3.063e-04   3.600e-05    -2.002e+00  /
#      CHEB/ 1.466e-01    1.005e-01    1.056e-03    -1.279e-03   -6.016e-04  /
#      CHEB/ -7.634e-04   -1.506e-04   -1.259e+00   -1.192e-01   7.446e-02   /
#      CHEB/ 1.901e-02    -3.369e-04   2.048e-04    -4.490e-04   -2.232e-04  /
#      CHEB/ -6.795e-01   -2.224e-01   9.185e-03    2.278e-02    1.302e-03   /
#      CHEB/ -2.892e-04   -4.954e-05   -1.147e-04   -2.644e-01   -1.994e-01  /
#      CHEB/ -4.197e-02   1.329e-02    3.423e-03    -4.889e-04   2.715e-05   /
#      CHEB/ 3.515e-05    -1.115e-01   -1.091e-01   -5.499e-02   6.719e-04   /
#      CHEB/ 4.521e-03    3.052e-04    -1.663e-05   4.432e-05    5.552e-02   /
#      CHEB/ -2.611e-02   -4.730e-02   -1.185e-02   2.055e-03    1.261e-03   /