units(length='cm', time='s', quantity='mol', act_energy='kcal/mol')

ideal_gas(name='gas',
          elements="H D T C Ci O Oi N Ne Ar He Si S F Cl Br I X",
          species="""aOOHbalkene      OH               ibutanal
                     aR               performic_acid   disub_c4ether
                     aQOOHb           H                aadduct
                     trisub_epoxy     ibutenol         aQOOH[O]
                     ipropyl          aRO2             O2
                     formic_acid      propene          aQOOHg
                     ibut_peroxyacid  HO2              CH3""",
          reactions='all',
          initial_state=state(temperature=300.0, pressure=OneAtm))

#-------------------------------------------------------------------------------
# Element data
#-------------------------------------------------------------------------------

element(symbol='Ci', atomic_mass=13.003)
element(symbol='D', atomic_mass=2.014)
element(symbol='Oi', atomic_mass=18.0)
element(symbol='T', atomic_mass=3.016)
element(symbol='X', atomic_mass=195.083)
#-------------------------------------------------------------------------------
# Species data
#-------------------------------------------------------------------------------

species(name='aOOHbalkene',
        atoms='C:3 H:6 O:3',
        thermo=(NASA([10.00, 497.41],
                     [ 3.76691735E+00,  1.51417956E-02,  1.85499431E-04,
                      -4.61303214E-07,  3.27678941E-10, -3.22770890E+04,
                       1.09903968E+01]),
                NASA([497.41, 3000.00],
                     [ 6.20882781E+00,  4.08866173E-02, -2.89934946E-05,
                       9.60428979E-09, -1.19355432E-12, -3.30814183E+04,
                      -4.72842811E+00])))

species(name='OH',
        atoms='H:1 O:1',
        thermo=(NASA([10.00, 984.14],
                     [ 3.49686242E+00,  1.83973160E-04, -9.97634499E-07,
                       1.56942783E-09, -6.10128175E-13,  3.41673934E+03,
                       1.48093120E+00]),
                NASA([984.14, 3000.00],
                     [ 3.45221464E+00, -2.95124034E-04,  7.39418622E-07,
                      -2.89309866E-10,  3.53041498E-14,  3.45751599E+03,
                       1.85813897E+00])))

species(name='ibutanal',
        atoms='C:4 H:8 O:1',
        thermo=(NASA([10.00, 683.88],
                     [ 3.57157346E+00,  3.36936906E-02, -1.78475021E-05,
                       1.31946716E-08, -7.58008388E-12, -2.67461830E+04,
                       1.05595084E+01]),
                NASA([683.88, 3000.00],
                     [ 1.29043622E+00,  4.14804229E-02, -2.27411206E-05,
                       6.08619500E-09, -6.38995128E-13, -2.63042639E+04,
                       2.16477430E+01])))

species(name='aR',
        atoms='C:4 H:9 O:1',
        thermo=(NASA([10.00, 455.22],
                     [ 3.59625500E+00,  3.38947981E-02,  7.37257079E-06,
                      -3.99275335E-08,  2.49019944E-11, -1.19779145E+04,
                       1.18269265E+01]),
                NASA([455.22, 3000.00],
                     [ 2.49586309E+00,  4.35639890E-02, -2.44887770E-05,
                       6.73363769E-09, -7.23862433E-13, -1.18777313E+04,
                       1.62696907E+01])))

species(name='performic_acid',
        atoms='C:1 H:2 O:3',
        thermo=(NASA([10.00, 590.95],
                     [ 3.92633851E+00,  4.24517168E-03,  6.71106764E-05,
                      -1.36545385E-07,  8.03337864E-11, -3.63028176E+04,
                       8.06485813E+00]),
                NASA([590.95, 3000.00],
                     [ 4.39992934E+00,  1.85411415E-02, -1.36005501E-05,
                       4.62292431E-09, -5.88463603E-13, -3.66643888E+04,
                       3.44353230E+00])))

species(name='disub_c4ether',
        atoms='C:4 H:8 O:2',
        thermo=(NASA([10.00, 413.50],
                     [ 3.78241323E+00,  1.89501763E-02,  8.65302396E-05,
                      -1.80580575E-07,  1.13656264E-10, -4.09516771E+04,
                       1.09982450E+01]),
                NASA([413.50, 3000.00],
                     [ 4.29420885E-01,  5.13851903E-02, -3.11292293E-05,
                       9.11498284E-09, -1.03192718E-12, -4.06743828E+04,
                       2.42134976E+01])))

species(name='aQOOHb',
        atoms='C:4 H:9 O:3',
        thermo=(NASA([10.00, 412.78],
                     [ 3.15498836E+00,  8.55068303E-02, -2.35307993E-04,
                       4.71983261E-07, -3.62709267E-10, -2.86620233E+04,
                       1.52522123E+01]),
                NASA([412.78, 3000.00],
                     [ 4.18099845E+00,  5.26168288E-02, -3.23998410E-05,
                       9.59389339E-09, -1.09464519E-12, -2.85512284E+04,
                       1.35782328E+01])))

species(name='H',
        atoms='H:1',
        thermo=(NASA([10.00, 794.01],
                     [ 2.50000000E+00,  1.99051163E-15, -1.19089508E-17,
                       2.10805655E-20, -1.11017699E-23,  2.54725594E+04,
                      -4.61279342E-01]),
                NASA([794.01, 3000.00],
                     [ 2.50000000E+00,  1.52667235E-14, -1.58445285E-17,
                       6.63088600E-21, -9.62111674E-25,  2.54725594E+04,
                      -4.61279342E-01])))

species(name='aadduct',
        atoms='C:4 H:9 O:3',
        thermo=(NASA([10.00, 449.84],
                     [ 3.06901904E+00,  9.20724491E-02, -2.68085092E-04,
                       5.15249897E-07, -3.68046586E-10, -2.86533013E+04,
                       1.46591735E+01]),
                NASA([449.84, 3000.00],
                     [ 4.11210745E+00,  5.16955724E-02, -2.97401041E-05,
                       8.32758939E-09, -9.08861448E-13, -2.84324603E+04,
                       1.39578825E+01])))

species(name='trisub_epoxy',
        atoms='C:4 H:8 O:2',
        thermo=(NASA([10.00, 209.19],
                     [ 3.75295042E+00,  2.37546930E-02,  1.26610110E-04,
                      -4.78364365E-07,  5.79468168E-10, -4.28407568E+04,
                       1.12739684E+01]),
                NASA([209.19, 3000.00],
                     [ 2.64185254E+00,  4.50006531E-02, -2.57361066E-05,
                       7.15266054E-09, -7.72980731E-13, -4.27942712E+04,
                       1.48960343E+01])))

species(name='ibutenol',
        atoms='C:4 H:8 O:1',
        thermo=(NASA([10.00, 135.97],
                     [ 3.95714996E+00,  5.72646980E-03,  4.63611760E-04,
                      -3.04137514E-06,  6.85019471E-09, -2.41729328E+04,
                       8.21931848E+00]),
                NASA([135.97, 3000.00],
                     [ 3.32467612E+00,  3.69033556E-02, -1.89960416E-05,
                       4.73417677E-09, -4.59705291E-13, -2.41673541E+04,
                       9.58133237E+00])))

species(name='aQOOH[O]',
        atoms='C:4 H:9 O:3',
        thermo=(NASA([10.00, 488.36],
                     [ 3.54559533E+00,  3.89536133E-02,  8.47689703E-05,
                      -2.45147486E-07,  1.76157259E-10, -2.40253156E+04,
                       1.34685910E+01]),
                NASA([488.36, 3000.00],
                     [ 3.94214913E+00,  5.71928314E-02, -3.72516212E-05,
                       1.15209013E-08, -1.35808341E-12, -2.43202765E+04,
                       9.21628964E+00])))

species(name='ipropyl',
        atoms='C:3 H:7',
        thermo=(NASA([10.00, 421.76],
                     [ 3.73943775E+00,  3.10070157E-02, -1.51196908E-04,
                       4.35367329E-07, -3.85565052E-10,  9.49213457E+03,
                       7.79448918E+00]),
                NASA([421.76, 3000.00],
                     [-4.74526725E-01,  3.20862468E-02, -1.67340747E-05,
                       4.21365136E-09, -4.13155573E-13,  1.01934458E+04,
                       2.85865912E+01])))

species(name='aRO2',
        atoms='C:4 H:9 O:3',
        thermo=(NASA([10.00, 670.36],
                     [ 3.45405325E+00,  4.74751311E-02,  9.77507759E-06,
                      -6.31019603E-08,  3.75500067E-11, -3.40093184E+04,
                       1.39284976E+01]),
                NASA([670.36, 3000.00],
                     [ 5.04137652E+00,  5.19952978E-02, -3.16472789E-05,
                       9.22798587E-09, -1.03598915E-12, -3.45365109E+04,
                       4.56056770E+00])))

species(name='O2',
        atoms='O:2',
        thermo=(NASA([10.00, 605.96],
                     [ 3.50743498E+00, -4.43860349E-04,  1.45938058E-06,
                       1.61509333E-09, -2.32050052E-12, -9.24756224E+02,
                       4.72183634E+00]),
                NASA([605.96, 3000.00],
                     [ 2.87462882E+00,  2.17840991E-03, -1.18262921E-06,
                       2.86910493E-10, -2.53297146E-14, -8.19517838E+02,
                       7.69331810E+00])))

species(name='formic_acid',
        atoms='C:1 H:2 O:2',
        thermo=(NASA([10.00, 741.38],
                     [ 4.06855785E+00, -4.74562133E-03,  4.71797900E-05,
                      -6.07490052E-08,  2.51286794E-11, -4.66880837E+04,
                       6.53681035E+00]),
                NASA([741.38, 3000.00],
                     [ 1.13645847E+00,  1.74953124E-02, -1.08112403E-05,
                       3.08075326E-09, -3.34892658E-13, -4.64297918E+04,
                       1.86149484E+01])))

species(name='propene',
        atoms='C:3 H:6',
        thermo=(NASA([10.00, 519.53],
                     [ 3.98723879E+00,  4.72040503E-04,  6.51776229E-05,
                      -9.89891002E-08,  4.91141123E-11,  1.76786798E+03,
                       6.98071210E+00]),
                NASA([519.53, 3000.00],
                     [ 3.79893331E-01,  2.82457690E-02, -1.50108430E-05,
                       3.90894069E-09, -4.00521928E-13,  2.14269533E+03,
                       2.20218922E+01])))

species(name='aQOOHg',
        atoms='C:4 H:9 O:3',
        thermo=(NASA([10.00, 455.48],
                     [ 3.62522127E+00,  2.83222320E-02,  2.08527447E-04,
                      -5.67427418E-07,  4.35169138E-10, -2.41517098E+04,
                       1.26617758E+01]),
                NASA([455.48, 3000.00],
                     [ 5.13914202E+00,  5.96270859E-02, -4.14435328E-05,
                       1.34202375E-08, -1.63474553E-12, -2.47522661E+04,
                       1.46991116E+00])))

species(name='ibut_peroxyacid',
        atoms='C:4 H:8 O:3',
        thermo=(NASA([10.00, 1386.21],
                     [ 3.50995385E+00,  4.78670384E-02, -2.40781384E-05,
                       3.71046938E-09,  3.85442115E-13, -4.83841575E+04,
                       1.22017268E+01]),
                NASA([1386.21, 3000.00],
                     [ 1.24543146E+01,  3.02396862E-02, -1.38577031E-05,
                       3.05328904E-09, -2.63982457E-13, -5.16500408E+04,
                      -3.67061828E+01])))

species(name='HO2',
        atoms='H:1 O:2',
        thermo=(NASA([10.00, 891.11],
                     [ 4.02887004E+00, -1.75769289E-03,  1.08726004E-05,
                      -1.13812972E-08,  3.90113097E-12,  4.95165001E+02,
                       4.69302008E+00]),
                NASA([891.11, 3000.00],
                     [ 3.06571044E+00,  4.28505005E-03, -2.19325920E-06,
                       5.58882699E-10, -5.61246669E-14,  5.98557610E+02,
                       8.84564156E+00])))

species(name='CH3',
        atoms='C:1 H:3',
        thermo=(NASA([10.00, 616.77],
                     [ 3.98929952E+00,  5.45150461E-04,  9.01320092E-06,
                      -1.08320497E-08,  4.38985879E-12,  1.65859883E+04,
                       2.22446886E-01]),
                NASA([616.77, 3000.00],
                     [ 3.35928237E+00,  4.63117126E-03, -9.24365433E-07,
                      -9.02514624E-11,  3.56905106E-14,  1.66637014E+04,
                       2.95743732E+00])))

#-------------------------------------------------------------------------------
# Reaction data
#-------------------------------------------------------------------------------

# Reaction 1
chebyshev_reaction('aQOOH[O] (+ M) <=> aQOOHb (+ M)',
                   Tmin=180.0, Tmax=1500.0,
                   Pmin=(0.01, 'atm'), Pmax=(98.692, 'atm'),
                   coeffs=[[ 1.39900e+00,  9.87300e-01, -4.06200e-01,  1.77600e-02,  6.15000e-03,  1.41800e-03, -1.74400e-04, -5.76800e-04],
                           [ 4.25300e+00,  1.67300e+00, -1.94500e-01, -7.62700e-02,  8.01300e-03,  2.61300e-03,  2.78600e-04,  3.12400e-04],
                           [-7.87900e-03,  6.29400e-01,  1.65100e-01, -4.14600e-02,  5.43600e-03,  2.46000e-03, -1.55200e-03, -1.99400e-04],
                           [-3.22200e-01, -3.23800e-02,  3.08100e-02, -1.00600e-02, -9.62000e-03,  7.84900e-03,  2.03100e-03, -9.74700e-04],
                           [-2.38700e-02,  1.47200e-02,  3.62900e-02, -4.73200e-03, -1.67900e-02, -3.36200e-03,  2.69000e-03,  9.68200e-04],
                           [-2.58800e-02,  3.46900e-02,  2.74200e-02,  1.68700e-02, -1.32800e-04, -4.41700e-03, -8.21400e-04,  3.28300e-04],
                           [-1.84100e-02,  2.79600e-03, -4.19200e-03,  1.88700e-03,  2.06500e-03,  4.58900e-04, -1.90800e-04,  6.82600e-05],
                           [-8.32900e-03,  1.12100e-02,  4.69700e-03, -8.18800e-04, -9.21000e-04, -9.12300e-04, -2.78600e-04,  8.95600e-05],
                           [-9.30400e-03,  1.03100e-03,  2.61100e-03,  2.91500e-03,  1.44900e-03,  2.75900e-04, -2.53600e-04, -2.34500e-04],
                           [-4.15400e-03, -3.97400e-03, -2.27800e-03, -7.88700e-04, -1.61400e-05,  3.19700e-04,  2.45900e-04,  1.21800e-04]])

# Reaction 2
chebyshev_reaction('aQOOHg (+ M) <=> aQOOHb (+ M)',
                   Tmin=180.0, Tmax=1500.0,
                   Pmin=(0.01, 'atm'), Pmax=(98.692, 'atm'),
                   coeffs=[[ 1.46400e+00, -3.70700e-01, -4.29200e-01,  2.18000e-02,  8.78200e-03,  4.68400e-04, -3.54800e-04, -1.97800e-04],
                           [ 4.13200e+00,  2.21300e+00, -4.11200e-01, -6.22800e-02,  2.65700e-02,  2.93700e-03, -1.56500e-03, -1.78100e-04],
                           [-1.70300e-02,  7.75900e-01,  5.67800e-02, -9.19200e-02,  3.14300e-04,  8.83000e-03, -6.70100e-04, -6.41700e-04],
                           [-3.33300e-01,  1.27700e-01,  1.31800e-01, -2.74700e-02, -1.85900e-02,  3.84100e-03,  2.05800e-03, -5.16200e-04],
                           [-1.15300e-01,  1.21800e-02,  6.25300e-02,  9.44400e-03, -1.19000e-02, -2.31900e-03,  1.71000e-03,  3.24500e-04],
                           [-3.98300e-02,  1.96900e-02,  1.93300e-02,  9.70800e-03, -2.80100e-03, -2.44900e-03,  1.27500e-04,  4.27000e-04],
                           [-2.60000e-02,  1.83600e-02,  6.97000e-03,  4.37700e-03, -2.76700e-04, -8.53300e-04, -2.26700e-04,  7.60200e-05],
                           [-1.91300e-02,  7.40000e-03,  3.23500e-03,  2.38700e-03,  1.70800e-05, -3.66100e-04, -3.20700e-05, -1.79800e-05],
                           [-1.05600e-02,  6.80300e-04,  6.41400e-04,  1.48600e-03,  4.49500e-04, -2.96800e-04, -5.53600e-05,  3.19100e-05],
                           [-5.33200e-03, -8.35500e-04, -4.55600e-04,  4.53800e-04,  6.37200e-04, -6.09800e-05, -1.32800e-04,  8.50200e-06]])

# Reaction 3
chebyshev_reaction('aRO2 (+ M) <=> aQOOHb (+ M)',
                   Tmin=180.0, Tmax=1500.0,
                   Pmin=(0.01, 'atm'), Pmax=(98.692, 'atm'),
                   coeffs=[[-3.53100e+00,  7.38500e-01, -1.82300e-01, -3.82300e-03,  7.68900e-03,  4.13400e-04, -3.06600e-04, -7.04400e-05],
                           [ 8.96000e+00,  1.24000e+00, -2.79800e-01, -1.68400e-02,  1.20300e-02,  1.72600e-03, -4.91100e-04, -1.91300e-04],
                           [ 6.16700e-01,  7.11400e-01, -1.02900e-01, -3.02700e-02,  3.65000e-03,  3.23600e-03, -8.89100e-05, -2.66800e-04],
                           [-1.44600e-01,  2.44300e-01,  2.80800e-02, -2.78600e-02, -4.64700e-03,  3.19500e-03,  4.93600e-04, -2.20900e-04],
                           [-1.59700e-01,  2.27000e-02,  5.85100e-02, -1.21700e-02, -7.40900e-03,  1.17600e-03,  8.39100e-04, -1.13300e-05],
                           [-6.09500e-02, -1.21400e-02,  3.29300e-02,  4.64000e-04, -4.49100e-03, -9.50200e-04,  6.22200e-04,  2.09500e-04],
                           [-1.89700e-02,  5.56400e-03,  8.48200e-03,  3.29700e-03, -6.46000e-04, -1.47400e-03,  9.04000e-05,  2.48200e-04],
                           [-1.29200e-02,  9.59100e-03,  1.25900e-03,  1.69300e-03,  6.79000e-04, -7.20400e-04, -2.29700e-04,  1.06300e-04],
                           [-1.03500e-02,  2.35900e-03,  1.29500e-03,  8.94200e-04,  1.66900e-04, -1.08300e-05, -1.85800e-04, -3.71700e-05],
                           [-5.61900e-03, -1.56000e-03,  8.18600e-04,  9.74200e-04, -2.34000e-04,  1.24500e-04, -3.92100e-05, -6.38200e-05]])

# Reaction 4
chebyshev_reaction('aadduct (+ M) <=> aQOOHb (+ M)',
                   Tmin=180.0, Tmax=1500.0,
                   Pmin=(0.01, 'atm'), Pmax=(98.692, 'atm'),
                   coeffs=[[-4.07000e+00,  5.96800e-01, -1.48400e-01, -1.85800e-02,  5.47200e-03,  9.67000e-04, -1.32800e-05, -2.92000e-04],
                           [ 5.21700e+00,  1.93300e+00, -3.84000e-01, -8.71600e-03,  1.60100e-02,  1.81100e-03, -8.00500e-04, -4.23300e-05],
                           [ 6.91000e-01,  4.71500e-01, -2.41300e-02, -4.12000e-02, -3.30500e-03,  4.48300e-03,  3.10800e-04, -1.73600e-04],
                           [-2.08500e-01,  1.83000e-01,  9.89200e-02, -4.16000e-02, -7.15700e-03,  4.07200e-03,  4.56300e-04, -4.59300e-04],
                           [-1.28400e-01,  2.70700e-02,  5.17700e-02, -5.24000e-04, -6.93600e-03, -2.08100e-03,  1.63000e-03,  3.51500e-04],
                           [ 1.79000e-02, -2.78200e-02,  2.42200e-02,  1.18600e-02, -7.10000e-03, -9.11200e-04,  3.78500e-04,  1.73800e-04],
                           [ 7.50700e-03,  5.70100e-03,  9.54600e-03,  1.64500e-03,  8.20100e-04, -1.22000e-03, -3.98400e-04,  2.86500e-04],
                           [-1.85000e-02,  1.88700e-02, -2.08000e-03,  1.25200e-03,  2.03900e-03, -1.10100e-03, -1.63500e-04,  1.22100e-04],
                           [-1.05200e-02,  1.88600e-03, -1.61700e-03,  3.64200e-03, -1.33400e-03,  4.20300e-04,  8.98300e-05, -3.08100e-04],
                           [-1.88700e-03, -5.46700e-03,  2.56500e-03, -1.25100e-04, -1.10000e-04,  5.53600e-04, -4.67000e-04,  1.71500e-04]])

# Reaction 5
chebyshev_reaction('O2 + aR (+ M) <=> aQOOHb (+ M)',
                   Tmin=180.0, Tmax=1500.0,
                   Pmin=(0.01, 'atm'), Pmax=(98.692, 'atm'),
                   coeffs=[[ 1.00100e+01,  1.15600e-01, -5.59800e-01,  8.97300e-03,  3.17900e-02, -5.53500e-03, -2.26400e-03,  1.43200e-03],
                           [-6.09000e-02,  1.08600e+00,  1.07300e-01, -1.30000e-01, -1.70800e-02,  2.05400e-02,  1.07500e-03, -3.27100e-03],
                           [-3.80600e-02,  2.39900e-01,  1.14800e-01, -4.06500e-03, -2.59700e-02, -2.49200e-03,  5.11800e-03,  5.23000e-04],
                           [-1.03400e-01,  3.55600e-02,  4.63300e-02,  1.92700e-02, -5.89600e-03, -6.58800e-03,  2.99100e-04,  1.53400e-03],
                           [-5.10100e-02,  2.80900e-02,  1.68300e-02,  7.84400e-03,  7.15800e-04, -2.18900e-03, -1.02000e-03,  3.65400e-04],
                           [-1.90700e-02,  2.73900e-02,  1.06800e-02,  1.59000e-03, -2.50700e-04, -2.92000e-04, -2.62500e-04, -5.56100e-05],
                           [-1.03700e-02,  1.34500e-02,  6.47800e-03,  1.37100e-03, -3.70300e-04, -3.35600e-04, -6.20200e-05,  3.01100e-05],
                           [-7.21000e-03,  1.35200e-03,  2.02300e-03,  1.46700e-03,  3.77500e-04, -2.14600e-04, -1.98800e-04, -1.49500e-05],
                           [-4.19700e-03, -1.98100e-03, -4.89200e-04,  6.23200e-04,  6.32500e-04,  1.14300e-04, -1.58600e-04, -9.68300e-05],
                           [-1.68700e-03, -1.95200e-03, -6.80200e-04,  8.79600e-05,  2.96600e-04,  1.84800e-04, -8.28900e-07, -7.19600e-05]])
#  aQOOHb(+M) <=> aQOOH[O](+M)                         1.000e+00 0.000     0.000
#      TCHEB/ 180.000   1500.000 /
#      PCHEB/ 0.010     98.692   /
#      CHEB/ 10 8/
#      CHEB/ -6.360e+00   9.873e-01    -4.062e-01   1.776e-02    6.150e-03   /
#      CHEB/ 1.418e-03    -1.744e-04   -5.768e-04   8.998e+00    1.673e+00   /
#      CHEB/ -1.945e-01   -7.627e-02   8.013e-03    2.613e-03    2.786e-04   /
#      CHEB/ 3.124e-04    7.005e-02    6.294e-01    1.651e-01    -4.146e-02  /
#      CHEB/ 5.436e-03    2.460e-03    -1.552e-03   -1.994e-04   -2.762e-01  /
#      CHEB/ -3.238e-02   3.081e-02    -1.006e-02   -9.620e-03   7.849e-03   /
#      CHEB/ 2.031e-03    -9.747e-04   -8.497e-03   1.472e-02    3.629e-02   /
#      CHEB/ -4.732e-03   -1.679e-02   -3.362e-03   2.690e-03    9.682e-04   /
#      CHEB/ -2.111e-02   3.469e-02    2.742e-02    1.687e-02    -1.328e-04  /
#      CHEB/ -4.417e-03   -8.214e-04   3.283e-04    -1.660e-02   2.796e-03   /
#      CHEB/ -4.192e-03   1.887e-03    2.065e-03    4.589e-04    -1.908e-04  /
#      CHEB/ 6.826e-05    -7.613e-03   1.121e-02    4.697e-03    -8.188e-04  /
#      CHEB/ -9.210e-04   -9.123e-04   -2.786e-04   8.956e-05    -9.110e-03  /
#      CHEB/ 1.031e-03    2.611e-03    2.915e-03    1.449e-03    2.759e-04   /
#      CHEB/ -2.536e-04   -2.345e-04   -4.147e-03   -3.974e-03   -2.278e-03  /
#      CHEB/ -7.887e-04   -1.614e-05   3.197e-04    2.459e-04    1.218e-04   /

# Reaction 6
chebyshev_reaction('aQOOHg (+ M) <=> aQOOH[O] (+ M)',
                   Tmin=180.0, Tmax=1500.0,
                   Pmin=(0.01, 'atm'), Pmax=(98.692, 'atm'),
                   coeffs=[[ 2.87100e+00,  1.20300e+00, -1.94600e-01, -1.44500e-03,  1.38900e-02, -9.04300e-04, -1.08400e-03, -6.07300e-05],
                           [ 1.67500e+00,  1.58000e+00, -2.21600e-01, -6.51400e-03,  1.76100e-02,  9.69200e-04, -1.60800e-03, -4.01800e-04],
                           [ 2.22300e-01,  4.33900e-01, -3.32800e-02, -1.12700e-02,  3.05100e-03,  5.41200e-03, -6.30700e-04, -6.94700e-04],
                           [-9.62200e-03,  1.97500e-03,  4.48500e-02, -3.03500e-02, -5.80400e-03,  6.93800e-03,  7.78600e-04, -5.48700e-04],
                           [-9.75300e-02,  1.13700e-02,  6.08700e-02, -3.00000e-02, -1.06000e-02,  2.38200e-03,  2.05000e-03,  1.36100e-04],
                           [-9.91600e-02,  5.26200e-02,  3.57000e-02, -4.20700e-03, -8.37600e-03, -3.51600e-03,  1.64200e-03,  6.34700e-04],
                           [-4.70300e-02,  3.48000e-02,  1.64700e-03,  1.43700e-02, -2.37700e-03, -4.23500e-03,  9.24100e-05,  3.98500e-04],
                           [-4.88000e-03,  4.13900e-03, -9.20600e-03,  1.14600e-02,  1.06800e-03, -9.00100e-04, -8.72100e-04, -1.03000e-04],
                           [ 4.60400e-03, -7.54600e-03, -7.03700e-04,  2.91200e-04,  1.20800e-03,  1.46100e-03, -6.74000e-04, -2.52300e-04],
                           [-1.97000e-03, -3.87800e-03,  6.40700e-03, -4.66400e-03,  4.90100e-04,  9.78500e-04,  2.49000e-05, -4.68300e-05]])

# Reaction 7
chebyshev_reaction('aRO2 (+ M) <=> aQOOH[O] (+ M)',
                   Tmin=180.0, Tmax=1500.0,
                   Pmin=(0.01, 'atm'), Pmax=(98.692, 'atm'),
                   coeffs=[[-7.23600e+00,  1.95400e+00, -3.48000e-01,  2.45900e-03,  7.85000e-03,  2.34400e-03, -1.24800e-03, -3.50200e-04],
                           [ 1.31300e+01,  1.11000e+00,  4.91000e-02, -1.60800e-02, -5.30900e-03, -3.26700e-03,  1.80100e-03,  2.07300e-04],
                           [-6.21500e-01,  2.56700e-01,  3.80500e-02, -4.23900e-03,  1.04600e-02, -5.19600e-04, -2.22900e-03,  2.68200e-04],
                           [-2.12100e-01,  3.33300e-02,  1.17800e-02, -1.11500e-02,  2.58200e-03,  4.37200e-03, -4.95500e-04, -5.84000e-04],
                           [-7.15000e-02,  1.88200e-02,  3.25100e-05, -6.51000e-03, -3.61800e-03,  1.69500e-03,  1.08100e-03, -1.98800e-04],
                           [-3.35300e-02,  2.51600e-02,  7.74500e-04, -2.07600e-03, -2.74900e-03, -7.59900e-04,  6.34300e-04,  2.02600e-04],
                           [-2.28500e-02,  1.99100e-02,  4.63700e-03, -8.64200e-04, -9.84700e-04, -6.96400e-04, -5.88100e-05,  1.53200e-04],
                           [-1.28500e-02,  6.35700e-03,  5.98500e-03,  1.81500e-04, -4.76700e-04, -1.76600e-04, -1.64400e-04,  7.06200e-06],
                           [-7.99800e-03,  1.23200e-03,  3.88600e-03,  6.19500e-04, -3.40800e-04,  4.36300e-05, -3.11600e-05, -5.61700e-05],
                           [-3.63500e-03, -1.32600e-03,  1.53900e-03,  8.24400e-04, -1.26200e-04, -4.44800e-05,  4.02100e-05, -2.03300e-05]])

# Reaction 8
chebyshev_reaction('aadduct (+ M) <=> aQOOH[O] (+ M)',
                   Tmin=180.0, Tmax=1500.0,
                   Pmin=(0.01, 'atm'), Pmax=(98.692, 'atm'),
                   coeffs=[[-6.89100e+00,  2.07600e+00, -3.41800e-01, -4.11900e-03,  6.99700e-03,  2.79400e-03, -1.06500e-03, -4.11300e-04],
                           [ 8.33800e+00,  1.19800e+00,  5.90400e-02, -2.03300e-02, -3.86400e-03, -3.24500e-03,  1.42000e-03,  2.80800e-04],
                           [-4.28600e-01,  2.51900e-01,  4.52200e-02, -8.18800e-03,  9.38100e-03,  9.84400e-04, -2.13300e-03,  3.10200e-05],
                           [-1.69600e-01,  1.18700e-02,  2.13100e-02, -1.11300e-02, -1.50200e-03,  4.50000e-03,  2.77600e-04, -6.06300e-04],
                           [-1.91800e-02,  6.40500e-03,  8.82300e-03, -2.91500e-03, -6.18600e-03,  4.49400e-04,  1.41200e-03,  1.17800e-06],
                           [ 1.34500e-02,  2.14900e-02,  5.99100e-03,  1.29200e-03, -2.83900e-03, -1.68300e-03,  4.21700e-04,  3.21000e-04],
                           [ 7.33400e-04,  1.93300e-02,  6.34000e-03,  9.01500e-04, -2.46100e-04, -8.37800e-04, -2.98900e-04,  1.23100e-04],
                           [-8.49100e-03,  6.54900e-03,  5.43700e-03,  7.77400e-04,  6.57400e-05, -7.45100e-06, -2.07400e-04, -6.05300e-05],
                           [-8.69000e-03,  1.20500e-03,  2.62100e-03,  7.42800e-04, -1.00300e-04,  1.38400e-04,  3.08700e-05, -7.20900e-05],
                           [-4.43100e-03, -1.67100e-03,  4.64400e-04,  7.76300e-04, -3.53000e-06, -4.79000e-05,  7.69000e-05,  3.52600e-06]])

# Reaction 9
chebyshev_reaction('O2 + aR (+ M) <=> aQOOH[O] (+ M)',
                   Tmin=180.0, Tmax=1500.0,
                   Pmin=(0.01, 'atm'), Pmax=(98.692, 'atm'),
                   coeffs=[[ 9.51200e+00,  1.06900e+00, -3.22300e-01, -2.74800e-02,  8.24500e-03, -3.29600e-03, -1.62000e-03,  7.02100e-04],
                           [-2.01700e-01,  6.31100e-01,  1.26200e-01, -3.74000e-02, -5.11600e-03,  1.13600e-02,  1.27700e-03, -2.17800e-03],
                           [-3.66900e-02,  6.83600e-02,  5.93000e-02,  1.14500e-02, -1.09800e-02, -3.52700e-03,  2.58300e-03,  1.02500e-03],
                           [-7.80800e-02, -1.13700e-02,  1.40600e-02,  1.37500e-02,  4.77300e-04, -4.14700e-03, -1.07700e-03,  8.49200e-04],
                           [-3.68100e-02,  2.02600e-02,  5.06100e-03,  1.71400e-03,  1.81600e-03, -1.37500e-05, -9.41800e-04, -2.67100e-04],
                           [-1.28400e-02,  2.76900e-02,  7.56700e-03, -1.72700e-03, -9.07300e-04,  7.13200e-04,  2.89300e-04, -2.51600e-04],
                           [-6.12000e-03,  1.42900e-02,  6.22800e-03,  1.75200e-04, -1.15700e-03, -1.60500e-04,  3.55900e-04,  1.04900e-04],
                           [-3.20700e-03,  1.35300e-03,  2.08200e-03,  1.15900e-03, -8.52900e-05, -3.51500e-04, -3.15800e-05,  1.17400e-04],
                           [-3.24300e-03, -1.83800e-03, -2.04300e-04,  7.31800e-04,  4.84500e-04, -4.72100e-05, -1.62500e-04, -2.15200e-05],
                           [-2.49700e-03, -2.37500e-03, -8.32500e-04,  1.01400e-04,  2.79900e-04,  1.10600e-04, -4.09100e-05, -5.09600e-05]])
#  aQOOHb(+M) <=> aQOOHg(+M)                           1.000e+00 0.000     0.000
#      TCHEB/ 180.000   1500.000 /
#      PCHEB/ 0.010     98.692   /
#      CHEB/ 10 8/
#      CHEB/ -6.320e+00   -3.707e-01   -4.292e-01   2.180e-02    8.782e-03   /
#      CHEB/ 4.684e-04    -3.548e-04   -1.978e-04   9.046e+00    2.213e+00   /
#      CHEB/ -4.112e-01   -6.228e-02   2.657e-02    2.937e-03    -1.565e-03  /
#      CHEB/ -1.781e-04   2.062e-01    7.759e-01    5.678e-02    -9.192e-02  /
#      CHEB/ 3.143e-04    8.830e-03    -6.701e-04   -6.417e-04   -2.392e-01  /
#      CHEB/ 1.277e-01    1.318e-01    -2.747e-02   -1.859e-02   3.841e-03   /
#      CHEB/ 2.058e-03    -5.162e-04   -8.709e-02   1.218e-02    6.253e-02   /
#      CHEB/ 9.444e-03    -1.190e-02   -2.319e-03   1.710e-03    3.245e-04   /
#      CHEB/ -3.197e-02   1.969e-02    1.933e-02    9.708e-03    -2.801e-03  /
#      CHEB/ -2.449e-03   1.275e-04    4.270e-04    -2.349e-02   1.836e-02   /
#      CHEB/ 6.970e-03    4.377e-03    -2.767e-04   -8.533e-04   -2.267e-04  /
#      CHEB/ 7.602e-05    -1.840e-02   7.400e-03    3.235e-03    2.387e-03   /
#      CHEB/ 1.708e-05    -3.661e-04   -3.207e-05   -1.798e-05   -1.053e-02  /
#      CHEB/ 6.803e-04    6.414e-04    1.486e-03    4.495e-04    -2.968e-04  /
#      CHEB/ -5.536e-05   3.191e-05    -5.474e-03   -8.355e-04   -4.556e-04  /
#      CHEB/ 4.538e-04    6.372e-04    -6.098e-05   -1.328e-04   8.502e-06   /
#  aQOOH[O](+M) <=> aQOOHg(+M)                         1.000e+00 0.000     0.000
#      TCHEB/ 180.000   1500.000 /
#      PCHEB/ 0.010     98.692   /
#      CHEB/ 10 8/
#      CHEB/ 2.846e+00    1.203e+00    -1.946e-01   -1.445e-03   1.389e-02   /
#      CHEB/ -9.043e-04   -1.084e-03   -6.073e-05   1.845e+00    1.580e+00   /
#      CHEB/ -2.216e-01   -6.514e-03   1.761e-02    9.692e-04    -1.608e-03  /
#      CHEB/ -4.018e-04   3.676e-01    4.339e-01    -3.328e-02   -1.127e-02  /
#      CHEB/ 3.051e-03    5.412e-03    -6.307e-04   -6.947e-04   3.852e-02   /
#      CHEB/ 1.975e-03    4.485e-02    -3.035e-02   -5.804e-03   6.938e-03   /
#      CHEB/ 7.786e-04    -5.487e-04   -8.471e-02   1.137e-02    6.087e-02   /
#      CHEB/ -3.000e-02   -1.060e-02   2.382e-03    2.050e-03    1.361e-04   /