units(length='cm', time='s', quantity='mol', act_energy='kcal/mol')

ideal_gas(name='gas',
          elements="H D T C Ci O Oi N Ne Ar He Si S F Cl Br I X",
          species="""aOOHbalkene      OH               ibutanal
                     aR               performic_acid   disub_c4ether
                     aQOOHb           H                aadduct
                     trisub_epoxy     ibutenol         aQOOH[O]
                     ipropyl          aRO2             O2
                     formic_acid      propene          aQOOHg
                     ibut_peroxyacid  HO2              CH3""",
          reactions='all',
          initial_state=state(temperature=300.0, pressure=OneAtm))

#-------------------------------------------------------------------------------
# Element data
#-------------------------------------------------------------------------------

element(symbol='Ci', atomic_mass=13.003)
element(symbol='D', atomic_mass=2.014)
element(symbol='Oi', atomic_mass=18.0)
element(symbol='T', atomic_mass=3.016)
element(symbol='X', atomic_mass=195.083)
#-------------------------------------------------------------------------------
# Species data
#-------------------------------------------------------------------------------

species(name='aOOHbalkene',
        atoms='C:3 H:6 O:3',
        thermo=(NASA([10.00, 497.41],
                     [ 3.76691735E+00,  1.51417956E-02,  1.85499431E-04,
                      -4.61303214E-07,  3.27678941E-10, -3.08477177E+04,
                       1.09903968E+01]),
                NASA([497.41, 3000.00],
                     [ 6.20882781E+00,  4.08866173E-02, -2.89934946E-05,
                       9.60428979E-09, -1.19355432E-12, -3.16520471E+04,
                      -4.72842811E+00])))

species(name='OH',
        atoms='H:1 O:1',
        thermo=(NASA([10.00, 984.14],
                     [ 3.49686242E+00,  1.83973160E-04, -9.97634499E-07,
                       1.56942783E-09, -6.10128175E-13,  3.41673934E+03,
                       1.48093120E+00]),
                NASA([984.14, 3000.00],
                     [ 3.45221464E+00, -2.95124034E-04,  7.39418622E-07,
                      -2.89309866E-10,  3.53041498E-14,  3.45751599E+03,
                       1.85813897E+00])))

species(name='ibutanal',
        atoms='C:4 H:8 O:1',
        thermo=(NASA([10.00, 683.88],
                     [ 3.57157346E+00,  3.36936906E-02, -1.78475021E-05,
                       1.31946716E-08, -7.58008388E-12, -2.87256592E+04,
                       1.05595084E+01]),
                NASA([683.88, 3000.00],
                     [ 1.29043622E+00,  4.14804229E-02, -2.27411206E-05,
                       6.08619500E-09, -6.38995128E-13, -2.82837401E+04,
                       2.16477430E+01])))

species(name='aR',
        atoms='C:4 H:9 O:1',
        thermo=(NASA([10.00, 455.22],
                     [ 3.59625500E+00,  3.38947981E-02,  7.37257079E-06,
                      -3.99275335E-08,  2.49019944E-11, -1.16698652E+04,
                       1.18269265E+01]),
                NASA([455.22, 3000.00],
                     [ 2.49586309E+00,  4.35639890E-02, -2.44887770E-05,
                       6.73363769E-09, -7.23862433E-13, -1.15696820E+04,
                       1.62696907E+01])))

species(name='performic_acid',
        atoms='C:1 H:2 O:3',
        thermo=(NASA([10.00, 590.95],
                     [ 3.92633851E+00,  4.24517168E-03,  6.71106764E-05,
                      -1.36545385E-07,  8.03337864E-11, -3.63028176E+04,
                       8.06485813E+00]),
                NASA([590.95, 3000.00],
                     [ 4.39992934E+00,  1.85411415E-02, -1.36005501E-05,
                       4.62292431E-09, -5.88463603E-13, -3.66643888E+04,
                       3.44353230E+00])))

species(name='disub_c4ether',
        atoms='C:4 H:8 O:2',
        thermo=(NASA([10.00, 413.50],
                     [ 3.78241323E+00,  1.89501763E-02,  8.65302396E-05,
                      -1.80580575E-07,  1.13656264E-10, -4.08302057E+04,
                       1.09982450E+01]),
                NASA([413.50, 3000.00],
                     [ 4.29420885E-01,  5.13851903E-02, -3.11292293E-05,
                       9.11498284E-09, -1.03192718E-12, -4.05529114E+04,
                       2.42134976E+01])))

species(name='aQOOHb',
        atoms='C:4 H:9 O:3',
        thermo=(NASA([10.00, 412.78],
                     [ 3.15498836E+00,  8.55068303E-02, -2.35307993E-04,
                       4.71983261E-07, -3.62709267E-10, -3.03620542E+04,
                       1.52522123E+01]),
                NASA([412.78, 3000.00],
                     [ 4.18099845E+00,  5.26168288E-02, -3.23998410E-05,
                       9.59389339E-09, -1.09464519E-12, -3.02512592E+04,
                       1.35782328E+01])))

species(name='H',
        atoms='H:1',
        thermo=(NASA([10.00, 794.01],
                     [ 2.50000000E+00,  1.99051163E-15, -1.19089508E-17,
                       2.10805655E-20, -1.11017699E-23,  2.54725594E+04,
                      -4.61279342E-01]),
                NASA([794.01, 3000.00],
                     [ 2.50000000E+00,  1.52667235E-14, -1.58445285E-17,
                       6.63088600E-21, -9.62111674E-25,  2.54725594E+04,
                      -4.61279342E-01])))

species(name='aadduct',
        atoms='C:4 H:9 O:3',
        thermo=(NASA([10.00, 449.84],
                     [ 3.06901904E+00,  9.20724491E-02, -2.68085092E-04,
                       5.15249897E-07, -3.68046586E-10, -3.09587238E+04,
                       1.46591735E+01]),
                NASA([449.84, 3000.00],
                     [ 4.11210745E+00,  5.16955724E-02, -2.97401041E-05,
                       8.32758939E-09, -9.08861448E-13, -3.07378828E+04,
                       1.39578825E+01])))

species(name='trisub_epoxy',
        atoms='C:4 H:8 O:2',
        thermo=(NASA([10.00, 209.19],
                     [ 3.75295042E+00,  2.37546930E-02,  1.26610110E-04,
                      -4.78364365E-07,  5.79468168E-10, -4.00516837E+04,
                       1.12739684E+01]),
                NASA([209.19, 3000.00],
                     [ 2.64185254E+00,  4.50006531E-02, -2.57361066E-05,
                       7.15266054E-09, -7.72980731E-13, -4.00051981E+04,
                       1.48960343E+01])))

species(name='ibutenol',
        atoms='C:4 H:8 O:1',
        thermo=(NASA([10.00, 135.97],
                     [ 3.95714996E+00,  5.72646980E-03,  4.63611760E-04,
                      -3.04137514E-06,  6.85019471E-09, -2.29529644E+04,
                       8.21931848E+00]),
                NASA([135.97, 3000.00],
                     [ 3.32467612E+00,  3.69033556E-02, -1.89960416E-05,
                       4.73417677E-09, -4.59705291E-13, -2.29473857E+04,
                       9.58133237E+00])))

species(name='aQOOH[O]',
        atoms='C:4 H:9 O:3',
        thermo=(NASA([10.00, 488.36],
                     [ 3.54559533E+00,  3.89536133E-02,  8.47689703E-05,
                      -2.45147486E-07,  1.76157259E-10, -2.44202564E+04,
                       1.34685910E+01]),
                NASA([488.36, 3000.00],
                     [ 3.94214913E+00,  5.71928314E-02, -3.72516212E-05,
                       1.15209013E-08, -1.35808341E-12, -2.47152174E+04,
                       9.21628964E+00])))

species(name='ipropyl',
        atoms='C:3 H:7',
        thermo=(NASA([10.00, 421.76],
                     [ 3.73943775E+00,  3.10070157E-02, -1.51196908E-04,
                       4.35367329E-07, -3.85565052E-10,  9.49213457E+03,
                       7.79448918E+00]),
                NASA([421.76, 3000.00],
                     [-4.74526725E-01,  3.20862468E-02, -1.67340747E-05,
                       4.21365136E-09, -4.13155573E-13,  1.01934458E+04,
                       2.85865912E+01])))

species(name='aRO2',
        atoms='C:4 H:9 O:3',
        thermo=(NASA([10.00, 670.36],
                     [ 3.45405325E+00,  4.74751311E-02,  9.77507759E-06,
                      -6.31019603E-08,  3.75500067E-11, -3.41149628E+04,
                       1.39284976E+01]),
                NASA([670.36, 3000.00],
                     [ 5.04137652E+00,  5.19952978E-02, -3.16472789E-05,
                       9.22798587E-09, -1.03598915E-12, -3.46421553E+04,
                       4.56056770E+00])))

species(name='O2',
        atoms='O:2',
        thermo=(NASA([10.00, 605.96],
                     [ 3.50743498E+00, -4.43860349E-04,  1.45938058E-06,
                       1.61509333E-09, -2.32050052E-12, -9.24756224E+02,
                       4.72183634E+00]),
                NASA([605.96, 3000.00],
                     [ 2.87462882E+00,  2.17840991E-03, -1.18262921E-06,
                       2.86910493E-10, -2.53297146E-14, -8.19517838E+02,
                       7.69331810E+00])))

species(name='formic_acid',
        atoms='C:1 H:2 O:2',
        thermo=(NASA([10.00, 741.38],
                     [ 4.06855785E+00, -4.74562133E-03,  4.71797900E-05,
                      -6.07490052E-08,  2.51286794E-11, -4.66880837E+04,
                       6.53681035E+00]),
                NASA([741.38, 3000.00],
                     [ 1.13645847E+00,  1.74953124E-02, -1.08112403E-05,
                       3.08075326E-09, -3.34892658E-13, -4.64297918E+04,
                       1.86149484E+01])))

species(name='propene',
        atoms='C:3 H:6',
        thermo=(NASA([10.00, 519.53],
                     [ 3.98723879E+00,  4.72040503E-04,  6.51776229E-05,
                      -9.89891002E-08,  4.91141123E-11,  2.60182476E+03,
                       6.98071210E+00]),
                NASA([519.53, 3000.00],
                     [ 3.79893331E-01,  2.82457690E-02, -1.50108430E-05,
                       3.90894069E-09, -4.00521928E-13,  2.97665211E+03,
                       2.20218922E+01])))

species(name='aQOOHg',
        atoms='C:4 H:9 O:3',
        thermo=(NASA([10.00, 455.48],
                     [ 3.62522127E+00,  2.83222320E-02,  2.08527447E-04,
                      -5.67427418E-07,  4.35169138E-10, -2.65964971E+04,
                       1.26617758E+01]),
                NASA([455.48, 3000.00],
                     [ 5.13914202E+00,  5.96270859E-02, -4.14435328E-05,
                       1.34202375E-08, -1.63474553E-12, -2.71970534E+04,
                       1.46991116E+00])))

species(name='ibut_peroxyacid',
        atoms='C:4 H:8 O:3',
        thermo=(NASA([10.00, 1386.21],
                     [ 3.50995385E+00,  4.78670384E-02, -2.40781384E-05,
                       3.71046938E-09,  3.85442115E-13, -4.90415193E+04,
                       1.22017268E+01]),
                NASA([1386.21, 3000.00],
                     [ 1.24543146E+01,  3.02396862E-02, -1.38577031E-05,
                       3.05328904E-09, -2.63982457E-13, -5.23074026E+04,
                      -3.67061828E+01])))

species(name='HO2',
        atoms='H:1 O:2',
        thermo=(NASA([10.00, 891.11],
                     [ 4.02887004E+00, -1.75769289E-03,  1.08726004E-05,
                      -1.13812972E-08,  3.90113097E-12,  4.95165001E+02,
                       4.69302008E+00]),
                NASA([891.11, 3000.00],
                     [ 3.06571044E+00,  4.28505005E-03, -2.19325920E-06,
                       5.58882699E-10, -5.61246669E-14,  5.98557610E+02,
                       8.84564156E+00])))

species(name='CH3',
        atoms='C:1 H:3',
        thermo=(NASA([10.00, 616.77],
                     [ 3.98929952E+00,  5.45150461E-04,  9.01320092E-06,
                      -1.08320497E-08,  4.38985879E-12,  1.65859883E+04,
                       2.22446886E-01]),
                NASA([616.77, 3000.00],
                     [ 3.35928237E+00,  4.63117126E-03, -9.24365433E-07,
                      -9.02514624E-11,  3.56905106E-14,  1.66637014E+04,
                       2.95743732E+00])))

#-------------------------------------------------------------------------------
# Reaction data
#-------------------------------------------------------------------------------

# Reaction 1
chebyshev_reaction('aQOOH[O] (+ M) <=> aQOOHb (+ M)',
                   Tmin=180.0, Tmax=1500.0,
                   Pmin=(0.01, 'atm'), Pmax=(98.692, 'atm'),
                   coeffs=[[-4.04000e+00,  3.05900e+00, -6.03000e-01,  4.13900e-02, -1.52100e-02,  4.51900e-03, -1.18300e-03,  3.77900e-05],
                           [-2.93300e+00,  2.76300e+00,  4.23700e-01, -1.33900e-01,  5.24200e-03,  1.43100e-03,  8.00500e-04, -6.63800e-04],
                           [-3.55900e+00,  2.29600e-01,  8.68200e-02, -9.60600e-03,  7.55300e-03, -1.40200e-03, -6.22600e-04,  5.87900e-04],
                           [-1.83200e+00, -2.44500e-01, -4.97900e-02, -6.92200e-04,  5.35100e-03, -1.10000e-03, -7.22000e-04,  4.09300e-04],
                           [-8.01400e-01, -1.49700e-01, -5.09900e-02, -3.96100e-03,  2.46800e-05, -5.68900e-04,  5.13300e-04,  2.43400e-04],
                           [-3.11800e-01, -4.64900e-02, -2.32300e-02, -7.92200e-03, -3.33200e-03, -3.42400e-04,  9.06700e-04,  3.00400e-04],
                           [-1.10200e-01,  1.19900e-03, -3.39100e-03, -6.63500e-03, -4.55600e-03, -4.75700e-04,  3.82900e-04,  1.88400e-04],
                           [-4.06600e-02,  1.45900e-02,  6.58900e-03, -2.34500e-03, -2.98100e-03, -6.31100e-04, -1.69900e-04, -2.69900e-05],
                           [-8.68500e-03,  1.09800e-02,  1.19600e-02,  1.62600e-03,  2.87200e-04, -9.68800e-04, -1.66100e-04, -2.00100e-04],
                           [-1.27200e-02,  4.16000e-03,  7.74500e-03,  5.61100e-03,  1.01600e-03,  3.32000e-04, -3.74900e-04, -1.02500e-04]])

# Reaction 2
chebyshev_reaction('aQOOHg (+ M) <=> aQOOHb (+ M)',
                   Tmin=180.0, Tmax=1500.0,
                   Pmin=(0.01, 'atm'), Pmax=(98.692, 'atm'),
                   coeffs=[[-6.74700e+00,  2.29000e+00, -5.90600e-01, -2.35700e-02,  1.11200e-02,  8.29600e-04, -2.13600e-03,  5.76800e-04],
                           [ 1.15000e+00,  3.16500e+00,  3.39000e-01, -1.37200e-01, -2.35900e-02,  2.85500e-04,  2.38800e-03,  5.35600e-04],
                           [-3.09200e+00,  5.30200e-04,  2.99300e-01,  6.37300e-02, -1.43300e-02, -9.99700e-03, -2.42400e-04,  1.16100e-03],
                           [-1.95200e+00, -6.68200e-01,  1.44500e-03,  5.83800e-02,  1.22200e-02, -1.64800e-03, -1.67100e-03, -1.19900e-04],
                           [-9.26000e-01, -4.79700e-01, -1.18300e-01,  8.10200e-03,  1.20000e-02,  3.20800e-03, -4.12200e-05, -2.65400e-04],
                           [-3.49000e-01, -2.03300e-01, -1.05100e-01, -2.22700e-02,  4.86500e-03,  2.91800e-03,  6.50600e-04, -9.30800e-05],
                           [-7.98600e-02, -6.27800e-03, -5.48200e-02, -2.38400e-02, -3.52600e-03,  1.96500e-03,  4.50700e-04, -4.22000e-05],
                           [ 1.80300e-02,  6.52400e-02,  3.03000e-03, -1.69500e-02, -5.46800e-03, -1.17700e-04,  4.92000e-04, -8.44300e-06],
                           [ 3.14200e-02,  7.38700e-02,  2.59700e-02, -1.02100e-03, -5.10400e-03, -1.25500e-03,  2.15900e-04,  1.36300e-04],
                           [ 9.40500e-03,  3.96200e-02,  2.69600e-02,  9.09800e-03, -1.51000e-03, -1.43700e-03, -2.51500e-04,  1.17500e-04]])

# Reaction 3
chebyshev_reaction('aRO2 (+ M) <=> aQOOHb (+ M)',
                   Tmin=180.0, Tmax=1500.0,
                   Pmin=(0.01, 'atm'), Pmax=(98.692, 'atm'),
                   coeffs=[[-8.57900e+00,  1.85500e+00, -5.41600e-02,  1.48200e-02, -3.09700e-02,  3.85600e-03,  2.36200e-03,  3.74200e-05],
                           [ 4.79500e+00,  2.08700e+00,  2.90000e-01, -8.23200e-02, -1.63400e-02,  1.50200e-04,  3.47000e-03,  1.93000e-04],
                           [-2.43700e+00,  3.33900e-01,  2.13300e-01,  1.03100e-02, -8.95100e-03, -1.80100e-04,  8.67200e-04, -3.36200e-04],
                           [-1.54100e+00, -4.68900e-01, -1.41000e-02,  4.52500e-02,  1.21600e-02, -6.96300e-04, -1.25200e-03, -5.53400e-04],
                           [-7.50700e-01, -4.40600e-01, -1.14600e-01,  5.47000e-03,  1.62100e-02,  2.68600e-03, -1.22300e-03, -5.78000e-04],
                           [-2.86000e-01, -1.42000e-01, -9.47400e-02, -2.19700e-02,  2.05800e-03,  2.99200e-03,  3.71600e-04, -1.49400e-04],
                           [-5.22200e-02,  2.62300e-02, -2.77000e-02, -2.11400e-02, -6.70700e-03, -2.31200e-05,  6.99500e-04,  3.16400e-04],
                           [ 8.96400e-03,  5.42600e-02,  1.62100e-02, -7.59600e-03, -5.36900e-03, -1.80400e-03, -4.25600e-05,  2.49700e-04],
                           [ 9.85500e-03,  4.31300e-02,  2.15300e-02,  4.73200e-03, -1.24700e-03, -1.38100e-03, -4.66600e-04, -3.19900e-05],
                           [-1.10800e-02,  2.29000e-02,  1.23100e-02,  8.70500e-03,  1.48600e-03, -2.98500e-04, -3.59800e-04, -1.32400e-04]])

# Reaction 4
chebyshev_reaction('aadduct (+ M) <=> aQOOHb (+ M)',
                   Tmin=180.0, Tmax=1500.0,
                   Pmin=(0.01, 'atm'), Pmax=(98.692, 'atm'),
                   coeffs=[[-1.11600e+01,  1.22500e+00, -3.64500e-02,  5.02000e-02, -3.81200e-02,  6.27900e-03,  1.34100e-03, -4.59300e-04],
                           [-2.10000e+00,  2.43200e+00,  2.91200e-01, -1.27400e-01,  3.24200e-03,  1.33900e-03,  5.40500e-04,  6.59100e-04],
                           [-3.49800e+00,  4.90900e-01,  1.42000e-01, -1.21600e-02,  1.59900e-03,  7.73500e-04, -1.45000e-03, -3.41400e-04],
                           [-1.55400e+00, -2.02100e-01, -6.75600e-02,  3.54400e-02,  2.01400e-02, -1.09700e-03, -2.57600e-03, -5.86400e-04],
                           [-6.99500e-01, -2.86300e-01, -1.29200e-01,  1.16100e-03,  2.28400e-02,  3.20400e-03, -2.31000e-03, -5.19000e-04],
                           [-2.85500e-01, -9.16400e-02, -1.14300e-01, -2.54100e-02,  6.72600e-03,  3.19900e-03, -8.36900e-05, -3.82400e-05],
                           [-9.79900e-03,  6.01700e-02, -4.44600e-02, -2.38300e-02, -5.79800e-03, -2.47800e-04,  7.12500e-04,  3.52000e-04],
                           [ 2.78900e-02,  6.68300e-02,  1.15600e-02, -9.66700e-03, -5.13200e-03, -2.32400e-03,  2.27600e-04,  3.72500e-04],
                           [-1.02500e-01,  3.73000e-02,  2.20000e-02,  5.81400e-03, -2.13900e-03, -1.46000e-03, -5.29000e-05,  5.93300e-06],
                           [-1.33300e-01,  4.12000e-02,  1.56200e-02,  9.56000e-03,  3.02300e-04, -7.05600e-04,  6.61100e-05, -5.62000e-05]])

# Reaction 5
chebyshev_reaction('O2 + aR (+ M) <=> aQOOHb (+ M)',
                   Tmin=180.0, Tmax=1500.0,
                   Pmin=(0.01, 'atm'), Pmax=(98.692, 'atm'),
                   coeffs=[[ 2.74900e+00,  1.01000e+01, -1.46200e+00, -8.31500e-01,  3.00000e-02,  2.66900e-01, -9.94000e-03, -1.27100e-01],
                           [-2.60400e+00, -1.54200e+00,  1.76600e+00,  5.75600e-03, -7.91100e-02, -1.24500e-01, -7.85800e-03,  1.12400e-01],
                           [-1.91800e+00, -3.25700e-01, -4.83900e-02,  3.23500e-01, -5.54400e-02, -4.69600e-02,  2.76900e-02, -5.79300e-03],
                           [-1.08200e+00, -1.93200e-01, -2.50700e-01,  1.22500e-01,  4.60500e-02, -4.66700e-02,  1.51800e-02,  1.13500e-03],
                           [-3.90800e-01, -3.07300e-01, -1.60300e-02, -5.72300e-02,  5.46000e-02, -8.64600e-03, -1.76900e-02,  2.04000e-02],
                           [-1.18900e-01, -1.62200e-01,  7.78200e-03, -3.59000e-02,  6.59400e-03,  7.76800e-03, -8.41100e-03,  2.81800e-03],
                           [-4.67500e-02,  1.10100e-02, -3.90100e-02,  2.04400e-02, -2.06900e-02,  2.14000e-03,  8.39900e-03, -9.11100e-03],
                           [ 1.90700e-02, -1.82000e-02,  2.62000e-02, -5.86600e-03, -3.50600e-03, -2.17100e-03,  2.79300e-03, -5.42500e-04],
                           [ 4.94500e-02, -5.33100e-02,  5.48300e-02, -1.35200e-02,  4.04800e-05,  3.00300e-03, -3.36900e-03,  2.08000e-03],
                           [ 4.68000e-03, -4.89500e-03,  1.01900e-02,  9.21400e-03, -4.63700e-03,  1.10500e-03,  2.63300e-03, -4.15200e-03]])
#  aQOOHb(+M) <=> aQOOH[O](+M)                         1.000e+00 0.000     0.000
#      TCHEB/ 180.000   1500.000 /
#      PCHEB/ 0.010     98.692   /
#      CHEB/ 10 8/
#      CHEB/ -1.356e+01   3.059e+00    -6.030e-01   4.139e-02    -1.521e-02  /
#      CHEB/ 4.519e-03    -1.183e-03   3.779e-05    3.196e+00    2.763e+00   /
#      CHEB/ 4.237e-01    -1.339e-01   5.242e-03    1.431e-03    8.005e-04   /
#      CHEB/ -6.638e-04   -3.481e+00   2.296e-01    8.682e-02    -9.606e-03  /
#      CHEB/ 7.553e-03    -1.402e-03   -6.226e-04   5.879e-04    -1.786e+00  /
#      CHEB/ -2.445e-01   -4.979e-02   -6.922e-04   5.351e-03    -1.100e-03  /
#      CHEB/ -7.220e-04   4.093e-04    -7.860e-01   -1.497e-01   -5.099e-02  /
#      CHEB/ -3.961e-03   2.468e-05    -5.689e-04   5.133e-04    2.434e-04   /
#      CHEB/ -3.070e-01   -4.649e-02   -2.323e-02   -7.922e-03   -3.332e-03  /
#      CHEB/ -3.424e-04   9.067e-04    3.004e-04    -1.084e-01   1.199e-03   /
#      CHEB/ -3.391e-03   -6.635e-03   -4.556e-03   -4.757e-04   3.829e-04   /
#      CHEB/ 1.884e-04    -3.994e-02   1.459e-02    6.589e-03    -2.345e-03  /
#      CHEB/ -2.981e-03   -6.311e-04   -1.699e-04   -2.699e-05   -8.490e-03  /
#      CHEB/ 1.098e-02    1.196e-02    1.626e-03    2.872e-04    -9.688e-04  /
#      CHEB/ -1.661e-04   -2.001e-04   -1.271e-02   4.160e-03    7.745e-03   /
#      CHEB/ 5.611e-03    1.016e-03    3.320e-04    -3.749e-04   -1.025e-04  /

# Reaction 6
chebyshev_reaction('aQOOHg (+ M) <=> aQOOH[O] (+ M)',
                   Tmin=180.0, Tmax=1500.0,
                   Pmin=(0.01, 'atm'), Pmax=(98.692, 'atm'),
                   coeffs=[[ 4.08500e-01,  1.05600e+00,  4.45400e-02, -1.74700e-02,  8.11700e-04,  1.66500e-03, -8.31600e-04,  3.06000e-04],
                           [-3.00700e+00,  1.15200e+00,  1.35200e-01, -2.34600e-02,  3.58900e-03,  1.35500e-03, -1.09800e-03,  4.75600e-04],
                           [-4.17900e+00,  2.59300e-01,  6.58300e-03, -6.49800e-03,  8.73300e-03,  4.03400e-04, -7.27700e-04,  2.78200e-04],
                           [-2.18800e+00, -1.63300e-02, -7.56400e-02, -5.97600e-03,  6.08800e-03, -2.76300e-04, -1.38300e-04,  2.31900e-04],
                           [-9.64200e-01, -5.64900e-02, -5.40600e-02, -5.37700e-03,  3.17100e-03, -1.68400e-03,  2.31900e-05,  2.56900e-04],
                           [-4.10100e-01, -1.36400e-02, -3.10700e-02, -3.34400e-03,  2.71900e-03, -1.77500e-03,  1.32600e-04,  1.62700e-04],
                           [-1.53400e-01,  3.14300e-02, -2.49900e-02, -2.12900e-03, -2.84500e-04, -7.67200e-04,  4.29200e-04,  7.87300e-05],
                           [-3.40700e-02,  3.90700e-02, -8.97100e-03, -3.22100e-03, -2.83700e-03, -6.18000e-04,  5.69700e-04,  5.50500e-05],
                           [ 6.44300e-04,  2.02000e-02,  1.39000e-02, -1.68300e-03, -2.49300e-03, -1.10400e-03,  3.30200e-04,  2.05500e-05],
                           [ 2.93400e-03,  2.93200e-02,  1.21400e-02,  6.94500e-03, -1.14100e-03, -1.04200e-03, -3.15600e-05, -8.93200e-05]])

# Reaction 7
chebyshev_reaction('aRO2 (+ M) <=> aQOOH[O] (+ M)',
                   Tmin=180.0, Tmax=1500.0,
                   Pmin=(0.01, 'atm'), Pmax=(98.692, 'atm'),
                   coeffs=[[-9.84600e+00,  4.44600e+00, -1.07500e+00,  1.36000e-01,  4.28100e-02, -3.02400e-02,  5.47100e-03,  2.01700e-03],
                           [ 5.77600e+00,  9.59700e-01,  6.71200e-01, -2.24200e-01,  4.74100e-03,  2.40300e-02, -9.96400e-03,  4.61500e-04],
                           [-3.93100e+00, -1.78800e-01,  2.17100e-01,  5.69900e-03, -2.19800e-02,  6.12100e-03,  9.54800e-04, -1.18600e-03],
                           [-1.90500e+00, -2.57500e-01,  1.59200e-02,  1.51500e-02, -7.59200e-03,  1.13800e-04,  6.79000e-04, -2.75700e-04],
                           [-8.22900e-01, -1.14800e-01, -2.19500e-02,  3.32600e-03, -8.99900e-04, -5.31800e-04, -7.67300e-06, -1.77700e-04],
                           [-3.27700e-01, -2.36200e-02, -1.52800e-02, -2.32500e-03,  1.12300e-03, -3.50800e-05,  1.08800e-05, -1.34500e-04],
                           [-1.22900e-01,  5.40400e-03, -5.93700e-03, -3.10800e-03, -9.21800e-04,  3.69000e-04,  2.51700e-04, -5.44100e-05],
                           [-4.67200e-02,  1.59900e-02, -1.05000e-05, -2.66000e-03, -1.63800e-03, -1.24700e-04,  1.14600e-04,  7.35800e-05],
                           [-1.48700e-02,  7.19000e-03,  1.00100e-02, -2.03100e-03, -1.97800e-04, -6.66700e-04, -1.59800e-04,  1.14000e-04],
                           [-1.09500e-02,  9.27700e-03,  3.94900e-03,  4.83700e-03, -1.85300e-04, -3.04400e-04, -1.33400e-04, -7.84200e-05]])

# Reaction 8
chebyshev_reaction('aadduct (+ M) <=> aQOOH[O] (+ M)',
                   Tmin=180.0, Tmax=1500.0,
                   Pmin=(0.01, 'atm'), Pmax=(98.692, 'atm'),
                   coeffs=[[-1.23100e+01,  3.63100e+00, -9.89600e-01,  1.77300e-01,  2.62400e-02, -2.72000e-02,  6.26000e-03,  1.36400e-03],
                           [-8.97600e-01,  9.51900e-01,  7.92700e-01, -2.58500e-01,  3.92200e-03,  2.52600e-02, -9.93000e-03,  4.09500e-04],
                           [-4.80700e+00, -3.13100e-01,  2.39700e-01, -2.89200e-05, -2.95200e-02,  7.36300e-03,  1.57900e-03, -1.53200e-03],
                           [-1.78200e+00, -2.01200e-01,  2.07900e-02,  2.65100e-02, -1.46200e-02, -5.74300e-04,  1.82500e-03, -5.95000e-04],
                           [-6.84300e-01, -9.15000e-02, -1.21100e-02,  2.05200e-02, -4.99400e-03, -1.23300e-03,  7.65500e-04, -3.03900e-04],
                           [-2.80700e-01, -3.96100e-02, -3.38700e-02,  1.20600e-02,  4.52000e-04, -1.75500e-03,  7.70600e-04, -4.59300e-05],
                           [-6.15300e-02,  1.65600e-02, -3.25800e-02,  5.70300e-03, -1.63900e-04, -1.96700e-03,  7.76600e-04,  1.25400e-04],
                           [-2.38600e-02,  2.82800e-02, -1.62800e-02, -4.28400e-04,  1.93000e-03, -2.39700e-03,  1.75600e-04,  4.56700e-04],
                           [-1.29300e-01,  8.30400e-03,  1.89400e-03, -2.47400e-03,  3.53600e-03, -1.67500e-03, -5.19800e-04,  4.45900e-04],
                           [-1.35700e-01,  3.41200e-02,  3.16200e-03,  1.20300e-03,  2.80900e-03, -6.26500e-04, -7.51900e-04,  2.18900e-04]])

# Reaction 9
chebyshev_reaction('O2 + aR (+ M) <=> aQOOH[O] (+ M)',
                   Tmin=180.0, Tmax=1500.0,
                   Pmin=(0.01, 'atm'), Pmax=(98.692, 'atm'),
                   coeffs=[[ 7.17100e+00,  3.65200e+00,  3.76100e-02,  6.14200e-02,  3.03000e-02, -1.80900e-01,  1.08800e-02,  7.88100e-02],
                           [-2.84700e+00, -1.63300e+00,  2.66200e-01, -4.85900e-02, -3.53300e-02,  2.45600e-01, -5.41000e-02, -1.04700e-01],
                           [-2.02500e+00, -1.56100e-01, -3.14900e-01,  4.95900e-02,  8.94200e-03, -4.76700e-02,  7.15000e-02,  1.86900e-03],
                           [-1.14500e+00,  5.34200e-02, -4.43400e-02, -6.30900e-02,  1.56300e-02, -2.70600e-02, -2.19300e-02,  4.20600e-02],
                           [-5.24000e-01,  7.98600e-02,  2.93600e-02, -1.60900e-02, -1.69100e-02,  8.95500e-03, -1.23700e-02, -1.06000e-02],
                           [-1.94300e-01,  1.28200e-02,  3.51400e-02,  1.30200e-02, -9.12500e-03,  4.58800e-03,  3.86400e-03, -1.27400e-02],
                           [-9.27600e-02,  4.78000e-03,  7.76000e-03,  9.76700e-03,  3.92300e-03, -3.21200e-03,  3.75200e-03,  1.89800e-03],
                           [-6.18000e-02,  2.27700e-02, -1.22300e-02,  2.92100e-04,  6.29200e-03, -1.95300e-03, -1.16800e-03,  4.10000e-03],
                           [-1.43600e-02, -2.64200e-02,  6.42700e-03, -6.55000e-03,  9.45200e-04,  2.28900e-03, -2.05200e-03,  2.13400e-03],
                           [-7.58300e-03,  9.16300e-04, -6.21200e-03,  8.48600e-03, -5.90600e-03,  1.78900e-04,  4.06500e-03, -5.08200e-03]])
#  aQOOHb(+M) <=> aQOOHg(+M)                           1.000e+00 0.000     0.000
#      TCHEB/ 180.000   1500.000 /
#      PCHEB/ 0.010     98.692   /
#      CHEB/ 10 8/
#      CHEB/ -1.352e+01   2.290e+00    -5.906e-01   -2.357e-02   1.112e-02   /
#      CHEB/ 8.296e-04    -2.136e-03   5.768e-04    5.274e+00    3.165e+00   /
#      CHEB/ 3.390e-01    -1.372e-01   -2.359e-02   2.855e-04    2.388e-03   /
#      CHEB/ 5.356e-04    -2.869e+00   5.302e-04    2.993e-01    6.373e-02   /
#      CHEB/ -1.433e-02   -9.997e-03   -2.424e-04   1.161e-03    -1.858e+00  /
#      CHEB/ -6.682e-01   1.445e-03    5.838e-02    1.222e-02    -1.648e-03  /
#      CHEB/ -1.671e-03   -1.199e-04   -8.978e-01   -4.797e-01   -1.183e-01  /
#      CHEB/ 8.102e-03    1.200e-02    3.208e-03    -4.122e-05   -2.654e-04  /
#      CHEB/ -3.411e-01   -2.033e-01   -1.051e-01   -2.227e-02   4.865e-03   /
#      CHEB/ 2.918e-03    6.506e-04    -9.308e-05   -7.735e-02   -6.278e-03  /
#      CHEB/ -5.482e-02   -2.384e-02   -3.526e-03   1.965e-03    4.507e-04   /
#      CHEB/ -4.220e-05   1.876e-02    6.524e-02    3.030e-03    -1.695e-02  /
#      CHEB/ -5.468e-03   -1.177e-04   4.920e-04    -8.443e-06   3.144e-02   /
#      CHEB/ 7.387e-02    2.597e-02    -1.021e-03   -5.104e-03   -1.255e-03  /
#      CHEB/ 2.159e-04    1.363e-04    9.263e-03    3.962e-02    2.696e-02   /
#      CHEB/ 9.098e-03    -1.510e-03   -1.437e-03   -2.515e-04   1.175e-04   /
#  aQOOH[O](+M) <=> aQOOHg(+M)                         1.000e+00 0.000     0.000
#      TCHEB/ 180.000   1500.000 /
#      PCHEB/ 0.010     98.692   /
#      CHEB/ 10 8/
#      CHEB/ 3.153e+00    1.056e+00    4.454e-02    -1.747e-02   8.117e-04   /
#      CHEB/ 1.665e-03    -8.316e-04   3.060e-04    -5.013e+00   1.152e+00   /
#      CHEB/ 1.352e-01    -2.346e-02   3.589e-03    1.355e-03    -1.098e-03  /
#      CHEB/ 4.756e-04    -4.033e+00   2.593e-01    6.583e-03    -6.498e-03  /
#      CHEB/ 8.733e-03    4.034e-04    -7.277e-04   2.782e-04    -2.140e+00  /
#      CHEB/ -1.633e-02   -7.564e-02   -5.976e-03   6.088e-03    -2.763e-04  /
#      CHEB/ -1.383e-04   2.319e-04    -9.514e-01   -5.649e-02   -5.406e-02  /
#      CHEB/ -5.377e-03   3.171e-03    -1.684e-03   2.319e-05    2.569e-04   /