units(length='cm', time='s', quantity='mol', act_energy='kcal/mol')

ideal_gas(name='gas',
          elements="H D T C Ci O Oi N Ne Ar He Si S F Cl Br I X",
          species="""aOOHbalkene      OH               ibutanal
                     aR               performic_acid   disub_c4ether
                     aQOOHb           H                aadduct
                     trisub_epoxy     ibutenol         aQOOH[O]
                     ipropyl          aRO2             O2
                     formic_acid      propene          aQOOHg
                     ibut_peroxyacid  HO2              CH3""",
          reactions='all',
          initial_state=state(temperature=300.0, pressure=OneAtm))

#-------------------------------------------------------------------------------
# Element data
#-------------------------------------------------------------------------------

element(symbol='Ci', atomic_mass=13.003)
element(symbol='D', atomic_mass=2.014)
element(symbol='Oi', atomic_mass=18.0)
element(symbol='T', atomic_mass=3.016)
element(symbol='X', atomic_mass=195.083)
#-------------------------------------------------------------------------------
# Species data
#-------------------------------------------------------------------------------

species(name='aOOHbalkene',
        atoms='C:3 H:6 O:3',
        thermo=(NASA([10.00, 497.41],
                     [ 3.76691735E+00,  1.51417956E-02,  1.85499431E-04,
                      -4.61303214E-07,  3.27678941E-10, -3.15174774E+04,
                       1.09903968E+01]),
                NASA([497.41, 3000.00],
                     [ 6.20882781E+00,  4.08866173E-02, -2.89934946E-05,
                       9.60428979E-09, -1.19355432E-12, -3.23218067E+04,
                      -4.72842811E+00])))

species(name='OH',
        atoms='H:1 O:1',
        thermo=(NASA([10.00, 984.14],
                     [ 3.49686242E+00,  1.83973160E-04, -9.97634499E-07,
                       1.56942783E-09, -6.10128175E-13,  3.41673934E+03,
                       1.48093120E+00]),
                NASA([984.14, 3000.00],
                     [ 3.45221464E+00, -2.95124034E-04,  7.39418622E-07,
                      -2.89309866E-10,  3.53041498E-14,  3.45751599E+03,
                       1.85813897E+00])))

species(name='ibutanal',
        atoms='C:4 H:8 O:1',
        thermo=(NASA([10.00, 683.88],
                     [ 3.57157346E+00,  3.36936906E-02, -1.78475021E-05,
                       1.31946716E-08, -7.58008388E-12, -2.67589524E+04,
                       1.05595084E+01]),
                NASA([683.88, 3000.00],
                     [ 1.29043622E+00,  4.14804229E-02, -2.27411206E-05,
                       6.08619500E-09, -6.38995128E-13, -2.63170332E+04,
                       2.16477430E+01])))

species(name='aR',
        atoms='C:4 H:9 O:1',
        thermo=(NASA([10.00, 455.22],
                     [ 3.59625500E+00,  3.38947981E-02,  7.37257079E-06,
                      -3.99275335E-08,  2.49019944E-11, -1.37909385E+04,
                       1.18269265E+01]),
                NASA([455.22, 3000.00],
                     [ 2.49586309E+00,  4.35639890E-02, -2.44887770E-05,
                       6.73363769E-09, -7.23862433E-13, -1.36907553E+04,
                       1.62696907E+01])))

species(name='performic_acid',
        atoms='C:1 H:2 O:3',
        thermo=(NASA([10.00, 590.95],
                     [ 3.92633851E+00,  4.24517168E-03,  6.71106764E-05,
                      -1.36545385E-07,  8.03337864E-11, -3.63028176E+04,
                       8.06485813E+00]),
                NASA([590.95, 3000.00],
                     [ 4.39992934E+00,  1.85411415E-02, -1.36005501E-05,
                       4.62292431E-09, -5.88463603E-13, -3.66643888E+04,
                       3.44353230E+00])))

species(name='disub_c4ether',
        atoms='C:4 H:8 O:2',
        thermo=(NASA([10.00, 413.50],
                     [ 3.78241323E+00,  1.89501763E-02,  8.65302396E-05,
                      -1.80580575E-07,  1.13656264E-10, -4.00772871E+04,
                       1.09982450E+01]),
                NASA([413.50, 3000.00],
                     [ 4.29420885E-01,  5.13851903E-02, -3.11292293E-05,
                       9.11498284E-09, -1.03192718E-12, -3.97999928E+04,
                       2.42134976E+01])))

species(name='aQOOHb',
        atoms='C:4 H:9 O:3',
        thermo=(NASA([10.00, 412.78],
                     [ 3.15498836E+00,  8.55068303E-02, -2.35307993E-04,
                       4.71983261E-07, -3.62709267E-10, -2.70548475E+04,
                       1.52522123E+01]),
                NASA([412.78, 3000.00],
                     [ 4.18099845E+00,  5.26168288E-02, -3.23998410E-05,
                       9.59389339E-09, -1.09464519E-12, -2.69440526E+04,
                       1.35782328E+01])))

species(name='H',
        atoms='H:1',
        thermo=(NASA([10.00, 794.01],
                     [ 2.50000000E+00,  1.99051163E-15, -1.19089508E-17,
                       2.10805655E-20, -1.11017699E-23,  2.54725594E+04,
                      -4.61279342E-01]),
                NASA([794.01, 3000.00],
                     [ 2.50000000E+00,  1.52667235E-14, -1.58445285E-17,
                       6.63088600E-21, -9.62111674E-25,  2.54725594E+04,
                      -4.61279342E-01])))

species(name='aadduct',
        atoms='C:4 H:9 O:3',
        thermo=(NASA([10.00, 449.84],
                     [ 3.06901904E+00,  9.20724491E-02, -2.68085092E-04,
                       5.15249897E-07, -3.68046586E-10, -3.01922545E+04,
                       1.46591735E+01]),
                NASA([449.84, 3000.00],
                     [ 4.11210745E+00,  5.16955724E-02, -2.97401041E-05,
                       8.32758939E-09, -9.08861448E-13, -2.99714135E+04,
                       1.39578825E+01])))

species(name='trisub_epoxy',
        atoms='C:4 H:8 O:2',
        thermo=(NASA([10.00, 209.19],
                     [ 3.75295042E+00,  2.37546930E-02,  1.26610110E-04,
                      -4.78364365E-07,  5.79468168E-10, -4.24727500E+04,
                       1.12739684E+01]),
                NASA([209.19, 3000.00],
                     [ 2.64185254E+00,  4.50006531E-02, -2.57361066E-05,
                       7.15266054E-09, -7.72980731E-13, -4.24262644E+04,
                       1.48960343E+01])))

species(name='ibutenol',
        atoms='C:4 H:8 O:1',
        thermo=(NASA([10.00, 135.97],
                     [ 3.95714996E+00,  5.72646980E-03,  4.63611760E-04,
                      -3.04137514E-06,  6.85019471E-09, -2.30763684E+04,
                       8.21931848E+00]),
                NASA([135.97, 3000.00],
                     [ 3.32467612E+00,  3.69033556E-02, -1.89960416E-05,
                       4.73417677E-09, -4.59705291E-13, -2.30707897E+04,
                       9.58133237E+00])))

species(name='aQOOH[O]',
        atoms='C:4 H:9 O:3',
        thermo=(NASA([10.00, 488.36],
                     [ 3.54559533E+00,  3.89536133E-02,  8.47689703E-05,
                      -2.45147486E-07,  1.76157259E-10, -2.37160529E+04,
                       1.34685910E+01]),
                NASA([488.36, 3000.00],
                     [ 3.94214913E+00,  5.71928314E-02, -3.72516212E-05,
                       1.15209013E-08, -1.35808341E-12, -2.40110138E+04,
                       9.21628964E+00])))

species(name='ipropyl',
        atoms='C:3 H:7',
        thermo=(NASA([10.00, 421.76],
                     [ 3.73943775E+00,  3.10070157E-02, -1.51196908E-04,
                       4.35367329E-07, -3.85565052E-10,  9.49213457E+03,
                       7.79448918E+00]),
                NASA([421.76, 3000.00],
                     [-4.74526725E-01,  3.20862468E-02, -1.67340747E-05,
                       4.21365136E-09, -4.13155573E-13,  1.01934458E+04,
                       2.85865912E+01])))

species(name='aRO2',
        atoms='C:4 H:9 O:3',
        thermo=(NASA([10.00, 670.36],
                     [ 3.45405325E+00,  4.74751311E-02,  9.77507759E-06,
                      -6.31019603E-08,  3.75500067E-11, -3.16390687E+04,
                       1.39284976E+01]),
                NASA([670.36, 3000.00],
                     [ 5.04137652E+00,  5.19952978E-02, -3.16472789E-05,
                       9.22798587E-09, -1.03598915E-12, -3.21662613E+04,
                       4.56056770E+00])))

species(name='O2',
        atoms='O:2',
        thermo=(NASA([10.00, 605.96],
                     [ 3.50743498E+00, -4.43860349E-04,  1.45938058E-06,
                       1.61509333E-09, -2.32050052E-12, -9.24756224E+02,
                       4.72183634E+00]),
                NASA([605.96, 3000.00],
                     [ 2.87462882E+00,  2.17840991E-03, -1.18262921E-06,
                       2.86910493E-10, -2.53297146E-14, -8.19517838E+02,
                       7.69331810E+00])))

species(name='formic_acid',
        atoms='C:1 H:2 O:2',
        thermo=(NASA([10.00, 741.38],
                     [ 4.06855785E+00, -4.74562133E-03,  4.71797900E-05,
                      -6.07490052E-08,  2.51286794E-11, -4.66880837E+04,
                       6.53681035E+00]),
                NASA([741.38, 3000.00],
                     [ 1.13645847E+00,  1.74953124E-02, -1.08112403E-05,
                       3.08075326E-09, -3.34892658E-13, -4.64297918E+04,
                       1.86149484E+01])))

species(name='propene',
        atoms='C:3 H:6',
        thermo=(NASA([10.00, 519.53],
                     [ 3.98723879E+00,  4.72040503E-04,  6.51776229E-05,
                      -9.89891002E-08,  4.91141123E-11,  2.38935118E+03,
                       6.98071210E+00]),
                NASA([519.53, 3000.00],
                     [ 3.79893331E-01,  2.82457690E-02, -1.50108430E-05,
                       3.90894069E-09, -4.00521928E-13,  2.76417853E+03,
                       2.20218922E+01])))

species(name='aQOOHg',
        atoms='C:4 H:9 O:3',
        thermo=(NASA([10.00, 455.48],
                     [ 3.62522127E+00,  2.83222320E-02,  2.08527447E-04,
                      -5.67427418E-07,  4.35169138E-10, -2.50353729E+04,
                       1.26617758E+01]),
                NASA([455.48, 3000.00],
                     [ 5.13914202E+00,  5.96270859E-02, -4.14435328E-05,
                       1.34202375E-08, -1.63474553E-12, -2.56359292E+04,
                       1.46991116E+00])))

species(name='ibut_peroxyacid',
        atoms='C:4 H:8 O:3',
        thermo=(NASA([10.00, 1386.21],
                     [ 3.50995385E+00,  4.78670384E-02, -2.40781384E-05,
                       3.71046938E-09,  3.85442115E-13, -4.90955892E+04,
                       1.22017268E+01]),
                NASA([1386.21, 3000.00],
                     [ 1.24543146E+01,  3.02396862E-02, -1.38577031E-05,
                       3.05328904E-09, -2.63982457E-13, -5.23614725E+04,
                      -3.67061828E+01])))

species(name='HO2',
        atoms='H:1 O:2',
        thermo=(NASA([10.00, 891.11],
                     [ 4.02887004E+00, -1.75769289E-03,  1.08726004E-05,
                      -1.13812972E-08,  3.90113097E-12,  4.95165001E+02,
                       4.69302008E+00]),
                NASA([891.11, 3000.00],
                     [ 3.06571044E+00,  4.28505005E-03, -2.19325920E-06,
                       5.58882699E-10, -5.61246669E-14,  5.98557610E+02,
                       8.84564156E+00])))

species(name='CH3',
        atoms='C:1 H:3',
        thermo=(NASA([10.00, 616.77],
                     [ 3.98929952E+00,  5.45150461E-04,  9.01320092E-06,
                      -1.08320497E-08,  4.38985879E-12,  1.65859883E+04,
                       2.22446886E-01]),
                NASA([616.77, 3000.00],
                     [ 3.35928237E+00,  4.63117126E-03, -9.24365433E-07,
                      -9.02514624E-11,  3.56905106E-14,  1.66637014E+04,
                       2.95743732E+00])))

#-------------------------------------------------------------------------------
# Reaction data
#-------------------------------------------------------------------------------

# Reaction 1
chebyshev_reaction('aQOOH[O] (+ M) <=> aQOOHb (+ M)',
                   Tmin=180.0, Tmax=1500.0,
                   Pmin=(0.01, 'atm'), Pmax=(98.692, 'atm'),
                   coeffs=[[-9.80900e+00,  5.08300e+00,  1.01800e-01, -1.43100e-01, -3.88700e-02,  1.63200e-02,  1.82400e-03, -5.41500e-03],
                           [-6.14500e+00, -1.25000e+00, -1.47000e-01,  1.33100e-01,  3.78600e-02, -7.85600e-03,  6.72000e-03,  7.26900e-03],
                           [-3.29700e+00, -1.80000e-01, -8.86900e-02, -1.48400e-02,  4.89200e-03, -2.21200e-03, -4.21500e-03,  3.65600e-04],
                           [-1.30300e+00, -1.81300e-02, -3.03100e-02, -9.18300e-03,  6.53000e-04, -4.32000e-04, -7.14800e-04, -8.44500e-04],
                           [-4.44100e-01,  4.45800e-03, -3.07400e-02, -1.99900e-02, -3.45800e-03,  1.48000e-03, -1.45400e-04, -3.43600e-04],
                           [-2.27200e-01,  2.39400e-02, -4.60300e-03, -1.62700e-02, -5.42400e-03,  8.93000e-04,  2.26500e-04, -2.61200e-04],
                           [-9.31300e-02, -2.19500e-03,  1.06500e-02, -3.56300e-03, -7.34000e-03, -6.63700e-04,  1.12400e-03, -1.02400e-04],
                           [-1.66000e-01,  3.66400e-02,  8.62600e-03,  4.73500e-03,  1.62400e-03, -1.49300e-03, -3.93900e-04,  4.15800e-04],
                           [ 3.08200e-02, -9.15800e-03,  3.79900e-03,  6.11000e-03,  7.06700e-05, -1.31400e-03,  4.09800e-04,  2.74100e-04],
                           [ 2.15600e-02,  6.09500e-03, -1.15800e-02, -1.51400e-03,  5.01700e-03,  4.97900e-04, -1.53200e-03,  1.13600e-04]])

# Reaction 2
chebyshev_reaction('aQOOHg (+ M) <=> aQOOHb (+ M)',
                   Tmin=180.0, Tmax=1500.0,
                   Pmin=(0.01, 'atm'), Pmax=(98.692, 'atm'),
                   coeffs=[[-1.12500e+01,  4.33700e+00,  1.06600e-01, -4.07700e-02, -2.25800e-02,  5.04200e-03, -5.78900e-04, -3.22900e-03],
                           [-8.62300e+00, -1.04200e-01,  1.58200e-01,  1.76600e-01,  4.35800e-02, -1.03300e-02, -2.87100e-04,  2.69500e-03],
                           [-4.31600e+00, -3.91200e-01, -2.08200e-01, -1.78400e-02,  3.18600e-02,  6.67200e-03, -5.28200e-03, -5.18600e-04],
                           [-1.57200e+00, -7.15000e-02, -1.06100e-01, -5.65700e-02, -1.01800e-04,  8.85100e-03,  8.34300e-04, -1.86300e-03],
                           [-4.27600e-01,  2.28800e-02, -4.93000e-03, -2.17500e-02, -1.07000e-02,  6.27300e-04,  1.08700e-03,  1.07500e-04],
                           [-1.90000e-01, -9.87700e-03, -3.68400e-04, -1.21100e-03, -1.15000e-03,  3.96300e-04,  8.64900e-05, -3.41400e-04],
                           [-1.32800e-01, -1.16400e-02, -9.52700e-03, -9.36500e-03, -4.52300e-03,  1.02600e-03,  1.49700e-03, -1.05200e-04],
                           [-2.20800e-01,  2.30700e-02,  1.10200e-02,  3.85900e-04, -4.31400e-03, -1.99100e-03,  5.16900e-04,  3.31300e-04],
                           [ 7.13900e-03, -4.84200e-03,  2.03100e-03,  4.17200e-03,  9.93900e-04, -1.24400e-03, -7.99100e-04, -1.72000e-04],
                           [ 1.32300e-02,  4.37600e-04, -1.05000e-03,  1.11700e-03,  2.24600e-03,  9.27600e-04,  1.87200e-04, -4.60200e-05]])

# Reaction 3
chebyshev_reaction('aRO2 (+ M) <=> aQOOHb (+ M)',
                   Tmin=180.0, Tmax=1500.0,
                   Pmin=(0.01, 'atm'), Pmax=(98.692, 'atm'),
                   coeffs=[[-9.24500e+00,  2.48800e+00,  4.78800e-02,  7.49700e-03,  2.34800e-03, -7.39100e-04,  2.56500e-05,  9.24600e-05],
                           [-3.41800e+00,  9.65300e-01,  7.17500e-02, -1.43600e-02,  1.16300e-02,  9.75200e-03,  1.17300e-03, -1.38300e-03],
                           [-4.30800e+00,  2.83900e-01, -7.67800e-02, -2.35300e-02,  4.98400e-03,  2.51800e-03, -1.91000e-04, -3.14200e-04],
                           [-1.76400e+00,  4.11400e-02, -9.27700e-02, -1.27600e-02,  3.29900e-03, -7.20200e-04, -3.35400e-04,  2.58400e-04],
                           [-5.07300e-01, -8.39600e-03, -5.90700e-02, -5.26300e-03, -4.38000e-03, -4.04300e-03,  1.28800e-04,  1.15800e-03],
                           [-1.54500e-01,  2.45300e-02, -3.68700e-03,  5.51000e-03, -7.18500e-03, -3.80100e-03,  3.48400e-04,  6.48000e-04],
                           [-6.28200e-02,  2.76300e-02,  1.10400e-02,  7.15800e-03, -5.49300e-03, -1.90600e-03,  6.85200e-04,  6.95600e-05],
                           [-1.81100e-01,  1.41900e-02,  2.01600e-02,  9.43500e-03, -1.49400e-03,  7.67600e-04,  6.41800e-04, -6.18900e-04],
                           [-1.28200e-02, -1.43700e-02,  1.06500e-04,  1.85400e-03,  2.92300e-04,  1.07600e-03,  2.21600e-04, -2.77700e-04],
                           [ 1.57700e-02, -1.97900e-02, -3.05800e-03, -2.92000e-03,  1.26600e-04,  1.56200e-03, -1.78500e-04, -1.52000e-04]])

# Reaction 4
chebyshev_reaction('aadduct (+ M) <=> aQOOHb (+ M)',
                   Tmin=180.0, Tmax=1500.0,
                   Pmin=(0.01, 'atm'), Pmax=(98.692, 'atm'),
                   coeffs=[[-1.19400e+01,  2.30700e+00, -1.84200e-01, -6.80200e-02,  2.02200e-02,  1.40900e-02, -1.33500e-03, -3.05600e-03],
                           [-7.34800e+00, -6.72600e-02,  2.00300e-01,  9.89000e-02,  2.66600e-03, -4.95900e-03,  8.66100e-04,  1.08900e-03],
                           [-4.69900e+00, -2.46900e-02, -9.72700e-02, -1.48200e-02,  1.31200e-02,  5.86700e-03, -1.50500e-03, -1.55400e-03],
                           [-1.77000e+00,  1.58300e-01,  5.64400e-03, -2.23900e-02, -1.11600e-02, -6.38100e-04,  1.55100e-03,  6.05800e-04],
                           [-5.52900e-01, -1.87000e-02, -1.40400e-02, -1.01900e-02, -4.97200e-03, -1.79900e-03, -3.49800e-04,  6.41000e-04],
                           [-2.90800e-01, -8.93900e-03, -1.11600e-02, -1.16200e-02, -4.75100e-03,  1.15500e-04,  4.44700e-04,  3.16700e-04],
                           [-2.11300e-01,  4.05400e-02,  1.71700e-02,  4.37700e-03, -2.39200e-03, -2.69600e-03, -9.78500e-04,  1.68500e-04],
                           [-2.33200e-01,  6.47100e-02,  2.91700e-02,  6.82000e-03, -1.60500e-04, -4.29700e-04,  2.11400e-04, -1.32600e-04],
                           [ 1.05400e-01, -3.34200e-02, -1.47200e-02,  3.04800e-04,  3.43400e-03,  9.49600e-04,  1.02200e-04, -1.34400e-04],
                           [-1.57400e-02,  2.38000e-02,  3.40000e-03, -4.48600e-03, -1.98400e-03,  1.80200e-04,  3.27600e-04,  2.27600e-04]])

# Reaction 5
chebyshev_reaction('O2 + aR (+ M) <=> aQOOHb (+ M)',
                   Tmin=180.0, Tmax=1500.0,
                   Pmin=(0.01, 'atm'), Pmax=(98.692, 'atm'),
                   coeffs=[[-1.05500e+01,  7.47600e+00,  1.06400e+00, -9.72000e-02, -1.09900e-01,  5.95300e-03,  1.31100e-02, -6.13900e-04],
                           [-1.77300e+00, -3.98300e+00, -3.40900e-01,  2.61700e-01,  1.22400e-01, -2.70800e-02, -1.97300e-02,  3.59700e-03],
                           [-1.77900e+00,  1.42800e-01, -2.77500e-01, -9.43300e-02,  2.76700e-02,  2.80300e-02, -7.30100e-03, -8.45000e-03],
                           [-6.00700e-01,  6.44500e-02, -1.67900e-02, -4.00400e-02, -7.12900e-03,  1.10500e-02,  7.79800e-03, -1.55300e-03],
                           [-6.63900e-02, -6.25900e-02,  5.97200e-03,  8.29100e-04, -1.28400e-02,  6.54800e-04,  3.48500e-03,  2.14800e-03],
                           [ 2.18600e-02, -1.32600e-01,  5.12900e-02, -8.13000e-03, -1.35200e-02, -6.36600e-04,  3.70000e-03,  1.10700e-03],
                           [ 2.32200e-02, -1.02300e-01,  3.49300e-02, -8.98600e-03, -1.08300e-02,  1.83100e-03, -6.76300e-05, -6.91700e-04],
                           [-2.03000e-01,  7.76700e-02, -2.52300e-02,  1.40800e-02, -2.43200e-03, -2.43100e-03,  4.63600e-05, -4.09000e-04],
                           [-9.05000e-03,  2.64200e-02, -1.25500e-02,  2.87000e-03,  4.00800e-03, -3.04400e-03, -4.05800e-04,  3.26500e-04],
                           [ 4.06700e-02, -2.81400e-02,  6.53100e-03, -7.44900e-05,  1.10000e-03,  7.35800e-04,  1.73800e-04, -9.29700e-05]])
#  aQOOHb(+M) <=> aQOOH[O](+M)                         1.000e+00 0.000     0.000
#      TCHEB/ 180.000   1500.000 /
#      PCHEB/ 0.010     98.692   /
#      CHEB/ 10 8/
#      CHEB/ -1.581e+01   5.083e+00    1.018e-01    -1.431e-01   -3.887e-02  /
#      CHEB/ 1.632e-02    1.824e-03    -5.415e-03   -2.779e+00   -1.250e+00  /
#      CHEB/ -1.470e-01   1.331e-01    3.786e-02    -7.856e-03   6.720e-03   /
#      CHEB/ 7.269e-03    -3.219e+00   -1.800e-01   -8.869e-02   -1.484e-02  /
#      CHEB/ 4.892e-03    -2.212e-03   -4.215e-03   3.656e-04    -1.257e+00  /
#      CHEB/ -1.813e-02   -3.031e-02   -9.183e-03   6.530e-04    -4.320e-04  /
#      CHEB/ -7.148e-04   -8.445e-04   -4.288e-01   4.458e-03    -3.074e-02  /
#      CHEB/ -1.999e-02   -3.458e-03   1.480e-03    -1.454e-04   -3.436e-04  /
#      CHEB/ -2.225e-01   2.394e-02    -4.603e-03   -1.627e-02   -5.424e-03  /
#      CHEB/ 8.930e-04    2.265e-04    -2.612e-04   -9.132e-02   -2.195e-03  /
#      CHEB/ 1.065e-02    -3.563e-03   -7.340e-03   -6.637e-04   1.124e-03   /
#      CHEB/ -1.024e-04   -1.653e-01   3.664e-02    8.626e-03    4.735e-03   /
#      CHEB/ 1.624e-03    -1.493e-03   -3.939e-04   4.158e-04    3.102e-02   /
#      CHEB/ -9.158e-03   3.799e-03    6.110e-03    7.067e-05    -1.314e-03  /
#      CHEB/ 4.098e-04    2.741e-04    2.157e-02    6.095e-03    -1.158e-02  /
#      CHEB/ -1.514e-03   5.017e-03    4.979e-04    -1.532e-03   1.136e-04   /

# Reaction 6
chebyshev_reaction('aQOOHg (+ M) <=> aQOOH[O] (+ M)',
                   Tmin=180.0, Tmax=1500.0,
                   Pmin=(0.01, 'atm'), Pmax=(98.692, 'atm'),
                   coeffs=[[-6.55000e+00,  3.51500e+00, -3.85500e-01, -1.75200e-02,  3.44100e-02, -8.69800e-03, -3.63800e-03,  2.33800e-03],
                           [-6.74900e+00,  2.83200e-01,  4.91300e-01,  8.24100e-02, -3.45400e-02, -4.69000e-03, -1.92000e-03,  2.23200e-04],
                           [-4.31000e+00, -1.60300e-01, -1.33900e-01,  1.10500e-02,  2.67800e-02,  3.48400e-03, -1.98900e-03, -1.23500e-03],
                           [-1.73900e+00, -4.15900e-03, -9.73700e-02, -6.23300e-02, -5.35200e-03,  9.95600e-03,  4.41500e-03, -3.29500e-04],
                           [-7.14400e-01,  4.52400e-02, -1.04400e-02, -2.78900e-02, -1.33800e-02, -1.32100e-03,  1.71200e-03,  1.18900e-03],
                           [-3.18400e-01, -3.93100e-02, -3.28300e-03,  2.36600e-03, -5.98400e-05, -1.81000e-03, -1.66700e-03, -3.15700e-04],
                           [-1.91200e-01, -7.40600e-03,  1.21700e-03, -3.21000e-04, -6.08500e-04,  8.53800e-04, -1.66900e-04, -8.11000e-04],
                           [-5.65800e-02,  1.70900e-02,  4.17300e-03,  3.62600e-03,  6.79700e-04, -1.56300e-03, -5.80900e-04, -2.85300e-06],
                           [ 1.57800e-02, -7.78200e-03,  1.20500e-02,  6.39500e-03,  3.37600e-04, -8.86200e-05, -3.72000e-04, -5.13000e-04],
                           [-1.82400e-02,  8.93000e-03, -7.30900e-03,  3.45800e-04,  2.68000e-03,  5.49200e-05,  1.42000e-04,  4.31700e-04]])

# Reaction 7
chebyshev_reaction('aRO2 (+ M) <=> aQOOH[O] (+ M)',
                   Tmin=180.0, Tmax=1500.0,
                   Pmin=(0.01, 'atm'), Pmax=(98.692, 'atm'),
                   coeffs=[[-8.02900e+00,  4.21700e+00, -2.30300e-01, -1.78400e-01, -8.82200e-03,  3.30600e-02,  5.30200e-03, -6.54400e-03],
                           [ 2.11700e+00, -3.42900e-01,  1.66300e-01,  1.32500e-01, -1.65200e-02, -3.31600e-02,  1.86900e-03,  8.47900e-03],
                           [-3.86100e+00, -1.37800e-01, -6.80900e-02,  5.33200e-03,  1.86200e-02,  6.62200e-04, -5.55100e-03, -5.85700e-04],
                           [-1.75300e+00, -1.32600e-01, -6.53400e-02, -1.29000e-02,  5.92300e-03,  3.87000e-03,  2.41200e-04, -1.22100e-03],
                           [-7.07900e-01, -3.52000e-02, -2.75500e-02, -1.41800e-02, -3.20600e-03,  1.27600e-03,  5.52900e-04,  8.13200e-05],
                           [-2.73400e-01,  4.15300e-02,  1.04200e-02, -6.98100e-03, -4.68300e-03, -5.62600e-04, -1.89100e-05,  9.43200e-05],
                           [-1.16200e-01,  4.96700e-02,  2.96700e-02,  3.74200e-03, -5.21700e-03, -9.94000e-04,  8.73300e-04,  6.14700e-06],
                           [-4.47100e-02,  3.99700e-02,  5.74300e-03,  4.09600e-03,  3.50500e-03, -4.35400e-04, -6.79900e-04,  3.75400e-05],
                           [-1.85400e-02, -1.02600e-02,  3.37600e-03,  4.98300e-03,  5.95500e-04, -4.21800e-04,  5.74900e-04,  1.38100e-04],
                           [-2.35200e-02, -1.17600e-03, -1.48100e-02, -4.09300e-03,  4.08000e-03,  9.07900e-04, -1.16100e-03,  8.32400e-05]])

# Reaction 8
chebyshev_reaction('aadduct (+ M) <=> aQOOH[O] (+ M)',
                   Tmin=180.0, Tmax=1500.0,
                   Pmin=(0.01, 'atm'), Pmax=(98.692, 'atm'),
                   coeffs=[[-1.09100e+01,  4.28300e+00, -4.78700e-01, -2.70200e-01,  8.85600e-03,  4.98600e-02,  4.90600e-03, -1.01100e-02],
                           [-2.15800e+00, -9.57200e-01,  2.49300e-01,  2.22500e-01, -2.15100e-02, -4.80200e-02,  9.03500e-04,  1.15400e-02],
                           [-4.48100e+00, -1.14400e-01, -1.27800e-01, -2.29200e-03,  3.13300e-02,  5.50700e-03, -7.09500e-03, -2.25400e-03],
                           [-1.89400e+00,  1.71100e-01,  5.52600e-03, -2.23600e-02, -5.67700e-03,  2.01300e-03,  1.63100e-03, -4.70800e-04],
                           [-8.02200e-01,  3.76500e-02,  6.28300e-03, -1.06200e-02, -4.36600e-03,  1.00200e-03,  3.89500e-04,  1.65500e-05],
                           [-4.05500e-01,  2.62000e-02,  2.36200e-03, -1.42000e-02, -5.10700e-03,  1.68700e-03,  9.20700e-04, -4.51500e-05],
                           [-2.39700e-01,  5.00900e-02,  4.10800e-02,  9.14400e-03, -5.76800e-03, -2.47600e-03,  1.51800e-04,  4.40600e-05],
                           [-6.87300e-02,  7.19900e-02,  2.14500e-02,  6.09200e-03,  1.94300e-03, -1.32800e-03, -5.55500e-04,  2.47800e-04],
                           [ 1.22200e-01, -4.48300e-02, -5.13900e-03,  5.44400e-03,  1.94500e-03, -1.24900e-05,  6.06700e-04,  8.02300e-05],
                           [-3.85400e-02,  3.14400e-02, -3.75300e-03, -5.36500e-03,  1.34100e-03, -1.64500e-05, -8.72100e-04,  4.18200e-04]])

# Reaction 9
chebyshev_reaction('O2 + aR (+ M) <=> aQOOH[O] (+ M)',
                   Tmin=180.0, Tmax=1500.0,
                   Pmin=(0.01, 'atm'), Pmax=(98.692, 'atm'),
                   coeffs=[[-5.42800e+00,  6.13800e+00,  3.59500e-01, -1.57900e-01, -1.37200e-01, -2.39200e-02,  1.71400e-02,  1.10700e-02],
                           [-9.55300e-01, -2.25700e+00, -1.07800e-01,  2.73800e-01,  1.41600e-01, -1.34900e-03, -2.83600e-02, -1.11200e-02],
                           [-1.33500e+00,  1.69500e-01, -2.05000e-01, -5.02500e-02,  2.73500e-02,  2.98900e-02,  4.67000e-03, -4.42500e-03],
                           [-6.54500e-01, -2.63600e-02, -6.93500e-02, -4.64600e-02, -4.19000e-03,  4.74500e-03,  6.08500e-03,  2.42600e-03],
                           [-2.72200e-01, -1.54500e-01,  1.38200e-02, -2.13300e-02, -1.71200e-02, -1.75500e-04,  2.97500e-03,  1.11000e-03],
                           [-2.13300e-01,  2.96400e-02, -3.29200e-02,  2.02200e-03, -5.67800e-03, -3.29600e-03,  2.83300e-04,  4.85300e-04],
                           [-1.23800e-01,  5.72400e-02, -4.18700e-03, -3.60800e-03,  6.57900e-03, -2.80700e-03, -2.45300e-03,  4.34400e-04],
                           [ 2.76600e-02, -3.50700e-02,  3.20900e-02,  1.91600e-03, -3.17500e-03,  1.98500e-03,  1.48100e-05, -7.73600e-04],
                           [-3.84200e-04,  2.04300e-02, -5.15200e-04,  8.23800e-03, -1.62500e-03, -4.99100e-04,  9.08900e-04,  4.45900e-06],
                           [-9.68100e-03,  8.60100e-03, -3.31100e-03, -3.79400e-03,  2.62700e-03, -1.58200e-04, -2.45700e-04,  1.06100e-04]])
#  aQOOHb(+M) <=> aQOOHg(+M)                           1.000e+00 0.000     0.000
#      TCHEB/ 180.000   1500.000 /
#      PCHEB/ 0.010     98.692   /
#      CHEB/ 10 8/
#      CHEB/ -1.567e+01   4.337e+00    1.066e-01    -4.077e-02   -2.258e-02  /
#      CHEB/ 5.042e-03    -5.789e-04   -3.229e-03   -6.353e+00   -1.042e-01  /
#      CHEB/ 1.582e-01    1.766e-01    4.358e-02    -1.033e-02   -2.871e-04  /
#      CHEB/ 2.695e-03    -4.093e+00   -3.912e-01   -2.082e-01   -1.784e-02  /
#      CHEB/ 3.186e-02    6.672e-03    -5.282e-03   -5.186e-04   -1.478e+00  /
#      CHEB/ -7.150e-02   -1.061e-01   -5.657e-02   -1.018e-04   8.851e-03   /
#      CHEB/ 8.343e-04    -1.863e-03   -3.994e-01   2.288e-02    -4.930e-03  /
#      CHEB/ -2.175e-02   -1.070e-02   6.273e-04    1.087e-03    1.075e-04   /
#      CHEB/ -1.821e-01   -9.877e-03   -3.684e-04   -1.211e-03   -1.150e-03  /
#      CHEB/ 3.963e-04    8.649e-05    -3.414e-04   -1.303e-01   -1.164e-02  /
#      CHEB/ -9.527e-03   -9.365e-03   -4.523e-03   1.026e-03    1.497e-03   /
#      CHEB/ -1.052e-04   -2.201e-01   2.307e-02    1.102e-02    3.859e-04   /
#      CHEB/ -4.314e-03   -1.991e-03   5.169e-04    3.313e-04    7.160e-03   /
#      CHEB/ -4.842e-03   2.031e-03    4.172e-03    9.939e-04    -1.244e-03  /
#      CHEB/ -7.991e-04   -1.720e-04   1.309e-02    4.376e-04    -1.050e-03  /
#      CHEB/ 1.117e-03    2.246e-03    9.276e-04    1.872e-04    -4.602e-05  /
#  aQOOH[O](+M) <=> aQOOHg(+M)                         1.000e+00 0.000     0.000
#      TCHEB/ 180.000   1500.000 /
#      PCHEB/ 0.010     98.692   /
#      CHEB/ 10 8/
#      CHEB/ -4.963e+00   3.515e+00    -3.855e-01   -1.752e-02   3.441e-02   /
#      CHEB/ -8.698e-03   -3.638e-03   2.338e-03    -7.845e+00   2.832e-01   /
#      CHEB/ 4.913e-01    8.241e-02    -3.454e-02   -4.690e-03   -1.920e-03  /
#      CHEB/ 2.232e-04    -4.165e+00   -1.603e-01   -1.339e-01   1.105e-02   /
#      CHEB/ 2.678e-02    3.484e-03    -1.989e-03   -1.235e-03   -1.691e+00  /
#      CHEB/ -4.159e-03   -9.737e-02   -6.233e-02   -5.352e-03   9.956e-03   /
#      CHEB/ 4.415e-03    -3.295e-04   -7.015e-01   4.524e-02    -1.044e-02  /
#      CHEB/ -2.789e-02   -1.338e-02   -1.321e-03   1.712e-03    1.189e-03   /