units(length='cm', time='s', quantity='mol', act_energy='kcal/mol')

ideal_gas(name='gas',
          elements="H D T C Ci O Oi N Ne Ar He Si S F Cl Br I X",
          species="""OH             bQOOH[O]       acetone
                     H2O            balkoxyketone  ibutenol
                     trisub_epoxy   bQOOHg         CH2O
                     galkene        O2             bR
                     bQOOHa         bRO2           disub_epoxy
                     HO2""",
          reactions='all',
          initial_state=state(temperature=300.0, pressure=OneAtm))

#-------------------------------------------------------------------------------
# Element data
#-------------------------------------------------------------------------------

element(symbol='Ci', atomic_mass=13.003)
element(symbol='D', atomic_mass=2.014)
element(symbol='Oi', atomic_mass=18.0)
element(symbol='T', atomic_mass=3.016)
element(symbol='X', atomic_mass=195.083)
#-------------------------------------------------------------------------------
# Species data
#-------------------------------------------------------------------------------

species(name='OH',
        atoms='H:1 O:1',
        thermo=(NASA([10.00, 984.14],
                     [ 3.49686242E+00,  1.83973160E-04, -9.97634499E-07,
                       1.56942783E-09, -6.10128175E-13,  3.41673934E+03,
                       1.48093120E+00]),
                NASA([984.14, 3000.00],
                     [ 3.45221464E+00, -2.95124034E-04,  7.39418622E-07,
                      -2.89309866E-10,  3.53041498E-14,  3.45751599E+03,
                       1.85813897E+00])))

species(name='bQOOH[O]',
        atoms='C:4 H:9 O:3',
        thermo=(NASA([10.00, 338.69],
                     [ 3.60915854E+00,  3.39069566E-02,  2.22227265E-04,
                      -8.23527342E-07,  8.56246333E-10, -2.32896307E+04,
                       1.23284605E+01]),
                NASA([338.69, 3000.00],
                     [ 5.03198881E+00,  5.46235886E-02, -3.56935806E-05,
                       1.12371751E-08, -1.35390171E-12, -2.36012134E+04,
                       3.82760723E+00])))

species(name='acetone',
        atoms='C:3 H:6 O:1',
        thermo=(NASA([10.00, 414.35],
                     [ 3.73496166E+00,  3.05743218E-02, -1.26253585E-04,
                       3.66080978E-07, -3.31430437E-10, -2.72373052E+04,
                       8.24936012E+00]),
                NASA([414.35, 3000.00],
                     [ 1.70010292E-01,  3.28431468E-02, -1.80960132E-05,
                       4.82960690E-09, -5.02388538E-13, -2.66659221E+04,
                       2.56372653E+01])))

species(name='H2O',
        atoms='H:2 O:1',
        thermo=(NASA([10.00, 773.84],
                     [ 4.00473541E+00, -2.39729134E-04,  8.11862955E-07,
                       1.47891862E-09, -1.19783539E-12, -3.03533807E+04,
                      -9.96254147E-02]),
                NASA([773.84, 3000.00],
                     [ 3.52133374E+00,  1.05377009E-03,  6.40722099E-07,
                      -3.86240235E-10,  5.49243294E-14, -3.02424794E+04,
                       2.34173094E+00])))

species(name='balkoxyketone',
        atoms='C:4 H:7 O:2',
        thermo=(NASA([10.00, 269.93],
                     [ 3.81931151E+00,  1.68519318E-02,  2.42742224E-04,
                      -9.64821161E-07,  1.18509335E-09, -2.03751644E+04,
                       1.20521854E+01]),
                NASA([269.93, 3000.00],
                     [ 3.57555944E+00,  4.28868089E-02, -2.65390705E-05,
                       7.99659117E-09, -9.32983470E-13, -2.04436925E+04,
                       1.13957990E+01])))

species(name='ibutenol',
        atoms='C:4 H:8 O:1',
        thermo=(NASA([10.00, 135.97],
                     [ 3.95714996E+00,  5.72646980E-03,  4.63611760E-04,
                      -3.04137514E-06,  6.85019471E-09, -2.32907359E+04,
                       8.21931848E+00]),
                NASA([135.97, 3000.00],
                     [ 3.32467612E+00,  3.69033556E-02, -1.89960416E-05,
                       4.73417677E-09, -4.59705291E-13, -2.32851573E+04,
                       9.58133237E+00])))

species(name='trisub_epoxy',
        atoms='C:4 H:8 O:2',
        thermo=(NASA([10.00, 209.19],
                     [ 3.75295042E+00,  2.37546930E-02,  1.26610110E-04,
                      -4.78364365E-07,  5.79468168E-10, -4.17695234E+04,
                       1.12739684E+01]),
                NASA([209.19, 3000.00],
                     [ 2.64185254E+00,  4.50006531E-02, -2.57361066E-05,
                       7.15266054E-09, -7.72980731E-13, -4.17230378E+04,
                       1.48960343E+01])))

species(name='bQOOHg',
        atoms='C:4 H:9 O:3',
        thermo=(NASA([10.00, 441.09],
                     [ 3.56595280E+00,  3.36073467E-02,  2.03462772E-04,
                      -5.98977617E-07,  4.83271168E-10, -2.21825615E+04,
                       1.33537891E+01]),
                NASA([441.09, 3000.00],
                     [ 6.09031192E+00,  5.80517622E-02, -4.06392697E-05,
                       1.32574026E-08, -1.62501077E-12, -2.28657470E+04,
                      -1.97849715E+00])))

species(name='CH2O',
        atoms='C:1 H:2 O:1',
        thermo=(NASA([10.00, 601.31],
                     [ 4.03190845E+00, -1.93233367E-03,  8.89743345E-06,
                       2.98105926E-09, -7.90813886E-12, -1.42276270E+04,
                       3.47574660E+00]),
                NASA([601.31, 3000.00],
                     [ 1.40134195E+00,  9.48858016E-03, -4.43088317E-06,
                       9.48452194E-10, -7.43790219E-14, -1.38013869E+04,
                       1.57423780E+01])))

species(name='galkene',
        atoms='C:4 H:8 O:1',
        thermo=(NASA([10.00, 383.47],
                     [ 3.84035604E+00,  1.20378740E-02,  1.87486319E-04,
                      -5.44759148E-07,  4.80711015E-10, -2.11492828E+04,
                       1.02570291E+01]),
                NASA([383.47, 3000.00],
                     [ 4.00413385E+00,  3.79025144E-02, -2.15435710E-05,
                       6.15213311E-09, -6.97446345E-13, -2.13645722E+04,
                       6.98052628E+00])))

species(name='O2',
        atoms='O:2',
        thermo=(NASA([10.00, 605.96],
                     [ 3.50743498E+00, -4.43860349E-04,  1.45938058E-06,
                       1.61509333E-09, -2.32050052E-12, -9.24756224E+02,
                       4.72183634E+00]),
                NASA([605.96, 3000.00],
                     [ 2.87462882E+00,  2.17840991E-03, -1.18262921E-06,
                       2.86910493E-10, -2.53297146E-14, -8.19517838E+02,
                       7.69331810E+00])))

species(name='bR',
        atoms='C:4 H:9 O:1',
        thermo=(NASA([10.00, 483.43],
                     [ 3.38164846E+00,  5.97142637E-02, -1.58320095E-04,
                       3.04908893E-07, -2.13091806E-10, -1.47802838E+04,
                       1.09226843E+01]),
                NASA([483.43, 3000.00],
                     [ 2.33428824E+00,  4.22094427E-02, -2.28029290E-05,
                       6.04614564E-09, -6.30240159E-13, -1.43732018E+04,
                       1.83772893E+01])))

species(name='bQOOHa',
        atoms='C:4 H:9 O:3',
        thermo=(NASA([10.00, 390.53],
                     [ 3.54969236E+00,  3.76592474E-02,  1.76622653E-04,
                      -5.98063750E-07,  5.45069236E-10, -2.61638141E+04,
                       1.31518761E+01]),
                NASA([390.53, 3000.00],
                     [ 5.33564209E+00,  5.64935715E-02, -3.83214298E-05,
                       1.22990604E-08, -1.49549987E-12, -2.65864240E+04,
                       2.59015836E+00])))

species(name='bRO2',
        atoms='C:4 H:9 O:3',
        thermo=(NASA([10.00, 461.39],
                     [ 3.53964713E+00,  3.88723795E-02,  9.57420148E-05,
                      -2.80380499E-07,  2.09647462E-10, -3.24573145E+04,
                       1.18803618E+01]),
                NASA([461.39, 3000.00],
                     [ 3.47201723E+00,  6.00510247E-02, -4.00567321E-05,
                       1.25663813E-08, -1.49496682E-12, -3.26702613E+04,
                       9.77903975E+00])))

species(name='disub_epoxy',
        atoms='C:4 H:8 O:2',
        thermo=(NASA([10.00, 549.41],
                     [ 3.89863211E+00,  5.97532637E-03,  1.66685676E-04,
                      -3.10743768E-07,  1.78330192E-10, -3.68424862E+04,
                       1.13847308E+01]),
                NASA([549.41, 3000.00],
                     [-6.40277648E-01,  6.05960003E-02, -4.13427220E-05,
                       1.31555461E-08, -1.57685017E-12, -3.66693694E+04,
                       2.76005436E+01])))

species(name='HO2',
        atoms='H:1 O:2',
        thermo=(NASA([10.00, 891.11],
                     [ 4.02887004E+00, -1.75769289E-03,  1.08726004E-05,
                      -1.13812972E-08,  3.90113097E-12,  4.95165001E+02,
                       4.69302008E+00]),
                NASA([891.11, 3000.00],
                     [ 3.06571044E+00,  4.28505005E-03, -2.19325920E-06,
                       5.58882699E-10, -5.61246669E-14,  5.98557610E+02,
                       8.84564156E+00])))

#-------------------------------------------------------------------------------
# Reaction data
#-------------------------------------------------------------------------------

# Reaction 1
chebyshev_reaction('bQOOHg (+ M) <=> bRO2 (+ M)',
                   Tmin=180.0, Tmax=1500.0,
                   Pmin=(0.01, 'atm'), Pmax=(98.692, 'atm'),
                   coeffs=[[ 1.47300e+00,  1.09700e+00,  3.35600e-02,  9.69800e-04, -6.46300e-03, -1.45900e-03, -1.79600e-05,  2.99100e-04],
                           [-4.13200e+00,  1.12600e+00,  1.60100e-01,  2.63300e-04, -9.19400e-03, -2.85700e-03,  3.27700e-04,  4.26600e-04],
                           [-3.08100e+00,  1.12300e-01,  1.22200e-02,  1.62800e-02,  3.48400e-03, -9.69200e-04, -1.60200e-04,  1.10500e-04],
                           [-1.61800e+00, -1.30500e-01, -8.52500e-02, -8.06200e-03,  5.64200e-03,  2.52700e-03,  3.06600e-04, -1.99700e-04],
                           [-7.68600e-01, -6.06300e-02, -4.80300e-02, -1.41500e-02, -1.50400e-03,  9.68900e-04,  6.16300e-04,  4.01300e-05],
                           [-3.78200e-01, -1.33900e-02, -4.51100e-03,  1.23900e-03, -9.09100e-04, -1.05800e-03, -3.29900e-04,  2.13600e-05],
                           [-1.83500e-01, -2.51300e-02, -4.78700e-04,  6.52600e-03,  2.61900e-03, -2.92400e-05, -5.09200e-04, -2.08500e-04],
                           [-9.15600e-02, -2.97800e-02, -8.85100e-03,  4.53100e-04,  1.56500e-03,  8.14300e-04,  1.34000e-04, -6.68800e-05],
                           [-3.47100e-02, -1.32500e-02, -7.88600e-03, -3.62600e-03, -1.00200e-03,  7.63500e-05,  2.57100e-04,  1.36400e-04],
                           [ 3.22600e-03,  2.03800e-03, -1.42400e-03, -2.18400e-03, -1.19100e-03, -4.80000e-04, -7.68900e-05,  5.42500e-05]])

# Reaction 2
chebyshev_reaction('bQOOHa (+ M) <=> bRO2 (+ M)',
                   Tmin=180.0, Tmax=1500.0,
                   Pmin=(0.01, 'atm'), Pmax=(98.692, 'atm'),
                   coeffs=[[ 2.88600e-01,  1.79700e+00, -2.02600e-01,  5.76500e-02, -1.02200e-02, -5.12600e-03,  2.24300e-03, -2.88900e-04],
                           [-2.24900e+00,  8.18400e-01,  3.57400e-01, -4.83600e-02, -3.90300e-03, -1.26800e-03, -5.97700e-04,  9.32200e-04],
                           [-2.82100e+00, -6.90300e-02,  4.54300e-02,  1.05800e-02,  3.15300e-03,  2.17400e-03, -9.32800e-04, -5.94700e-05],
                           [-1.45200e+00, -1.88400e-01, -8.47200e-02, -9.56500e-03,  5.40000e-03,  3.51500e-03,  5.16700e-05, -3.81500e-04],
                           [-6.83300e-01, -1.10200e-01, -3.72400e-02, -1.07500e-02, -8.90100e-04,  6.44600e-04, -6.77200e-05,  9.98300e-06],
                           [-3.75100e-01,  1.25300e-03, -1.55300e-02,  5.58300e-03,  5.25600e-04, -1.79400e-03, -3.64100e-04,  1.37300e-05],
                           [-1.68000e-01, -2.53700e-02,  2.50100e-03,  4.27200e-03,  1.75900e-03, -2.57900e-04, -2.74500e-04, -1.22100e-05],
                           [-9.99400e-02, -1.64800e-02, -1.01200e-02,  2.61900e-04,  6.06100e-04,  2.39700e-04,  3.06400e-04,  3.45800e-05],
                           [-1.46800e-02, -3.12900e-02,  1.53500e-03, -4.47900e-03, -1.59100e-03,  5.35200e-04,  8.42200e-05,  7.47400e-05],
                           [-1.86500e-02,  1.64400e-02, -6.77500e-03, -1.33200e-03, -7.31900e-04, -3.74700e-04,  6.78700e-05, -2.13200e-05]])

# Reaction 3
chebyshev_reaction('bQOOH[O] (+ M) <=> bRO2 (+ M)',
                   Tmin=180.0, Tmax=1500.0,
                   Pmin=(0.01, 'atm'), Pmax=(98.692, 'atm'),
                   coeffs=[[ 5.02700e+00,  1.99500e+00, -2.52800e-02, -1.06700e-02, -3.06800e-03, -5.60400e-04, -7.27800e-05, -1.06400e-05],
                           [-5.80200e+00,  8.48800e-02,  8.04200e-03,  2.07500e-03,  4.15700e-04,  4.38800e-04,  4.33500e-04,  2.30900e-04],
                           [-2.88200e+00,  4.52500e-03, -2.74700e-02, -1.18400e-02, -3.45600e-03, -5.57700e-04,  3.60200e-05,  7.08200e-05],
                           [-1.52000e+00,  1.09200e-02, -1.05700e-02, -4.92800e-03, -1.41900e-03, -4.61500e-05,  1.75700e-04,  8.30000e-05],
                           [-8.66000e-01, -3.06500e-03, -5.41300e-03, -2.17500e-03, -6.23600e-04, -4.03600e-06,  1.42100e-04,  9.97900e-05],
                           [-3.20200e-01, -2.45500e-02, -9.65400e-03, -3.62700e-03, -9.57900e-04, -5.04400e-05,  8.75300e-05,  3.68900e-05],
                           [-1.93100e-01, -1.96700e-02, -3.05200e-03, -4.69300e-04, -1.44000e-04, -4.60400e-05,  1.87900e-05,  2.61300e-05],
                           [-1.66300e-01, -1.90800e-02, -4.10800e-03, -8.54200e-04, -1.56000e-04,  2.29100e-05,  3.74700e-05,  1.30900e-05],
                           [-7.51300e-02, -8.35500e-03, -1.15100e-03,  2.99200e-04,  7.29400e-05, -6.26900e-05, -3.84900e-05, -3.02000e-06],
                           [ 7.23600e-02, -4.94600e-03, -3.23600e-03, -9.22800e-04, -1.70000e-04, -8.66400e-06, -9.18800e-06, -1.49400e-05]])

# Reaction 4
chebyshev_reaction('O2 + bR (+ M) <=> bRO2 (+ M)',
                   Tmin=180.0, Tmax=1500.0,
                   Pmin=(0.01, 'atm'), Pmax=(98.692, 'atm'),
                   coeffs=[[ 1.32500e+01,  7.12900e-01, -6.63900e-02,  5.70300e-03, -3.52700e-04, -8.79600e-05,  1.08800e-05,  7.01900e-06],
                           [-2.57100e+00,  9.64600e-01, -8.59600e-03, -9.99200e-03,  8.02600e-04,  1.96200e-04, -6.05600e-05, -4.20400e-06],
                           [-1.68900e+00,  3.94900e-01,  5.21600e-02, -2.63100e-03, -1.43500e-03,  6.03200e-05,  5.94300e-05, -6.51700e-06],
                           [-1.06100e+00,  7.90900e-02,  3.44300e-02,  5.39500e-03, -2.50000e-04, -2.71600e-04, -2.38700e-06,  1.22300e-05],
                           [-6.21000e-01, -3.20700e-02,  7.60300e-03,  4.06100e-03,  8.85300e-04, -2.46600e-05, -4.50100e-05, -5.59800e-06],
                           [-3.41000e-01, -5.26500e-02, -4.46400e-03,  7.82700e-04,  5.91500e-04,  1.45400e-04,  8.50700e-06, -8.48800e-06],
                           [-1.70200e-01, -4.44900e-02, -6.85000e-03, -6.50700e-04,  7.61900e-05,  7.39200e-05,  2.93100e-05,  3.44200e-06],
                           [-7.08400e-02, -2.88100e-02, -6.25900e-03, -8.69600e-04, -9.10600e-05, -4.42700e-06,  8.65200e-06,  5.21100e-06],
                           [-1.74000e-02, -1.32300e-02, -4.69800e-03, -8.51600e-04, -9.67200e-05, -1.30300e-05, -4.36200e-06,  2.21400e-07],
                           [ 7.29200e-03, -1.05800e-03, -2.65900e-03, -7.45600e-04, -1.10300e-04, -7.39400e-06, -2.81500e-06, -1.45200e-06]])
#  bRO2(+M) <=> bQOOHg(+M)                             1.000e+00 0.000     0.000
#      TCHEB/ 180.000   1500.000 /
#      PCHEB/ 0.010     98.692   /
#      CHEB/ 10 8/
#      CHEB/ -1.146e+01   1.097e+00    3.356e-02    9.698e-04    -6.463e-03  /
#      CHEB/ -1.459e-03   -1.796e-05   2.991e-04    7.169e+00    1.126e+00   /
#      CHEB/ 1.601e-01    2.633e-04    -9.194e-03   -2.857e-03   3.277e-04   /
#      CHEB/ 4.266e-04    -2.936e+00   1.123e-01    1.222e-02    1.628e-02   /
#      CHEB/ 3.484e-03    -9.692e-04   -1.602e-04   1.105e-04    -1.581e+00  /
#      CHEB/ -1.305e-01   -8.525e-02   -8.062e-03   5.642e-03    2.527e-03   /
#      CHEB/ 3.066e-04    -1.997e-04   -7.628e-01   -6.063e-02   -4.803e-02  /
#      CHEB/ -1.415e-02   -1.504e-03   9.689e-04    6.163e-04    4.013e-05   /
#      CHEB/ -3.783e-01   -1.339e-02   -4.511e-03   1.239e-03    -9.091e-04  /
#      CHEB/ -1.058e-03   -3.299e-04   2.136e-05    -1.840e-01   -2.513e-02  /
#      CHEB/ -4.787e-04   6.526e-03    2.619e-03    -2.924e-05   -5.092e-04  /
#      CHEB/ -2.085e-04   -9.201e-02   -2.978e-02   -8.851e-03   4.531e-04   /
#      CHEB/ 1.565e-03    8.143e-04    1.340e-04    -6.688e-05   -3.504e-02  /
#      CHEB/ -1.325e-02   -7.886e-03   -3.626e-03   -1.002e-03   7.635e-05   /
#      CHEB/ 2.571e-04    1.364e-04    3.040e-03    2.038e-03    -1.424e-03  /
#      CHEB/ -2.184e-03   -1.191e-03   -4.800e-04   -7.689e-05   5.425e-05   /

# Reaction 5
chebyshev_reaction('bQOOHa (+ M) <=> bQOOHg (+ M)',
                   Tmin=180.0, Tmax=1500.0,
                   Pmin=(0.01, 'atm'), Pmax=(98.692, 'atm'),
                   coeffs=[[-1.40800e+01,  2.11100e+00,  1.48100e-02, -2.61400e-02, -3.83900e-02,  1.78300e-03,  4.30200e-03, -1.39900e-03],
                           [-2.55500e-01,  1.11600e+00,  5.16000e-01,  7.85400e-02,  4.16500e-03, -2.02700e-02, -3.87100e-03,  3.98600e-03],
                           [-3.41100e+00, -4.51900e-01, -1.45800e-01,  3.00200e-04,  2.51700e-02,  1.25200e-02, -9.23400e-04, -1.98800e-03],
                           [-1.62600e+00, -3.07900e-01, -1.88600e-01, -4.30300e-02, -3.12900e-03,  4.34500e-03,  2.40900e-03,  2.36100e-04],
                           [-6.32600e-01, -2.35600e-02, -2.76400e-02, -1.50500e-02, -8.63400e-03, -3.65700e-03, -5.45400e-04,  5.40800e-04],
                           [-2.76400e-01,  6.12800e-02,  1.78100e-02,  1.92600e-02,  1.95400e-03, -2.97300e-03, -1.36400e-03, -3.47600e-04],
                           [-1.22800e-01, -2.05300e-02,  1.02100e-02,  1.48700e-02,  7.25700e-03,  1.11800e-03, -5.95900e-04, -3.90900e-04],
                           [-6.51000e-02, -4.30600e-02, -1.67100e-02,  1.98500e-03,  2.84700e-03,  1.53100e-03,  6.59600e-04,  4.39800e-05],
                           [-1.58500e-02, -3.73900e-02, -8.35300e-03, -7.98900e-03, -2.14500e-03,  5.79700e-04,  3.37400e-04,  2.23900e-04],
                           [ 5.47600e-04,  3.00000e-03, -8.26600e-03, -2.34500e-03, -1.82500e-03, -1.12800e-03, -1.41900e-04,  9.01100e-05]])

# Reaction 6
chebyshev_reaction('bQOOH[O] (+ M) <=> bQOOHg (+ M)',
                   Tmin=180.0, Tmax=1500.0,
                   Pmin=(0.01, 'atm'), Pmax=(98.692, 'atm'),
                   coeffs=[[-9.34800e+00,  1.63300e+00,  2.70000e-01,  6.34700e-02, -1.68700e-02, -1.87900e-02, -6.73500e-03,  1.99600e-04],
                           [-3.72400e+00,  7.50700e-01, -5.67700e-02, -2.68600e-02,  2.31500e-02,  2.06500e-02,  5.71300e-03, -1.72300e-03],
                           [-3.40700e+00, -1.72200e-03, -9.97600e-02, -4.52500e-02, -1.92500e-02, -2.67200e-03,  3.67800e-03,  2.87700e-03],
                           [-1.73700e+00, -1.26400e-01, -9.68500e-02, -2.01300e-02, -4.35200e-03, -2.50500e-03, -1.15900e-03, -1.13600e-05],
                           [-8.27300e-01, -1.14700e-02, -2.58000e-02, -5.56400e-03,  1.40200e-04,  4.52800e-04, -5.48700e-04, -8.47400e-04],
                           [-2.21200e-01,  2.74100e-03,  5.16300e-03,  8.28100e-03,  2.71600e-03,  1.47900e-04, -3.08000e-04, -2.40800e-04],
                           [-1.28800e-01, -1.28200e-02,  4.54200e-03,  8.23300e-03,  4.16800e-03,  1.30800e-03,  1.26800e-04, -7.21100e-05],
                           [-1.30400e-01, -3.81500e-02, -1.13100e-02, -5.46700e-04,  1.50100e-03,  1.04200e-03,  4.05400e-04,  1.53200e-04],
                           [-6.82000e-02, -1.14900e-02, -6.59600e-03, -4.99100e-03, -1.79400e-03,  2.81300e-05,  2.99800e-04,  1.17500e-04],
                           [ 8.44700e-02, -1.07300e-02, -4.30300e-03, -2.92500e-03, -1.57100e-03, -8.16900e-04, -2.35300e-04,  3.87900e-05]])

# Reaction 7
chebyshev_reaction('O2 + bR (+ M) <=> bQOOHg (+ M)',
                   Tmin=180.0, Tmax=1500.0,
                   Pmin=(0.01, 'atm'), Pmax=(98.692, 'atm'),
                   coeffs=[[ 1.75100e+00,  1.80900e+00,  1.77700e-01, -1.50200e-01, -7.72900e-02,  9.26000e-03,  1.87100e-02,  2.42200e-03],
                           [-3.57200e+00,  6.42400e-01,  2.07200e-01,  2.04000e-01,  3.96500e-02, -3.46700e-02, -2.19300e-02,  2.52600e-03],
                           [-2.16900e+00, -9.59500e-02, -1.58500e-01,  1.32000e-02,  4.47000e-02,  1.89000e-02, -2.35800e-03, -6.48700e-03],
                           [-1.09100e+00, -2.76800e-02, -1.18100e-01, -5.34200e-02, -4.02300e-03,  1.06700e-02,  6.59100e-03,  2.22500e-04],
                           [-4.73700e-01,  8.74200e-02, -3.88300e-04, -2.40100e-02, -1.69900e-02, -3.75200e-03,  2.33500e-03,  2.13100e-03],
                           [-2.04300e-01,  6.15400e-02,  4.25900e-02,  9.69900e-03, -5.70500e-03, -5.35800e-03, -1.43700e-03,  6.10400e-04],
                           [-9.03700e-02, -7.13700e-03,  2.23300e-02,  1.48000e-02,  3.60100e-03, -9.95800e-04, -1.40300e-03, -4.97400e-04],
                           [-4.58300e-02, -3.72600e-02,  2.21800e-04,  5.82200e-03,  3.18600e-03,  8.15000e-04, -1.79600e-04, -2.57800e-04],
                           [-1.19800e-02, -2.82200e-02, -8.03600e-03, -1.02300e-03,  9.54800e-04,  6.44700e-04,  8.52800e-05, -1.05300e-04],
                           [ 3.24100e-03, -1.11800e-02, -4.98100e-03, -1.32300e-03, -8.86600e-05,  1.36800e-05,  2.67400e-06, -1.17700e-05]])
#  bRO2(+M) <=> bQOOHa(+M)                             1.000e+00 0.000     0.000
#      TCHEB/ 180.000   1500.000 /
#      PCHEB/ 0.010     98.692   /
#      CHEB/ 10 8/
#      CHEB/ -7.367e+00   1.797e+00    -2.026e-01   5.765e-02    -1.022e-02  /
#      CHEB/ -5.126e-03   2.243e-03    -2.889e-04   4.678e+00    8.184e-01   /
#      CHEB/ 3.574e-01    -4.836e-02   -3.903e-03   -1.268e-03   -5.977e-04  /
#      CHEB/ 9.322e-04    -2.766e+00   -6.903e-02   4.543e-02    1.058e-02   /
#      CHEB/ 3.153e-03    2.174e-03    -9.328e-04   -5.947e-05   -1.451e+00  /
#      CHEB/ -1.884e-01   -8.472e-02   -9.565e-03   5.400e-03    3.515e-03   /
#      CHEB/ 5.167e-05    -3.815e-04   -6.881e-01   -1.102e-01   -3.724e-02  /
#      CHEB/ -1.075e-02   -8.901e-04   6.446e-04    -6.772e-05   9.983e-06   /
#      CHEB/ -3.778e-01   1.253e-03    -1.553e-02   5.583e-03    5.256e-04   /
#      CHEB/ -1.794e-03   -3.641e-04   1.373e-05    -1.694e-01   -2.537e-02  /
#      CHEB/ 2.501e-03    4.272e-03    1.759e-03    -2.579e-04   -2.745e-04  /
#      CHEB/ -1.221e-05   -1.007e-01   -1.648e-02   -1.012e-02   2.619e-04   /
#      CHEB/ 6.061e-04    2.397e-04    3.064e-04    3.458e-05    -1.503e-02  /
#      CHEB/ -3.129e-02   1.535e-03    -4.479e-03   -1.591e-03   5.352e-04   /
#      CHEB/ 8.422e-05    7.474e-05    -1.877e-02   1.644e-02    -6.775e-03  /
#      CHEB/ -1.332e-03   -7.319e-04   -3.747e-04   6.787e-05    -2.132e-05  /
#  bQOOHg(+M) <=> bQOOHa(+M)                           1.000e+00 0.000     0.000
#      TCHEB/ 180.000   1500.000 /
#      PCHEB/ 0.010     98.692   /
#      CHEB/ 10 8/
#      CHEB/ -8.803e+00   2.111e+00    1.481e-02    -2.614e-02   -3.839e-02  /
#      CHEB/ 1.783e-03    4.302e-03    -1.399e-03   -4.630e+00   1.116e+00   /
#      CHEB/ 5.160e-01    7.854e-02    4.165e-03    -2.027e-02   -3.871e-03  /
#      CHEB/ 3.986e-03    -3.502e+00   -4.519e-01   -1.458e-01   3.002e-04   /
#      CHEB/ 2.517e-02    1.252e-02    -9.234e-04   -1.988e-03   -1.662e+00  /
#      CHEB/ -3.079e-01   -1.886e-01   -4.303e-02   -3.129e-03   4.345e-03   /
#      CHEB/ 2.409e-03    2.361e-04    -6.432e-01   -2.356e-02   -2.764e-02  /
#      CHEB/ -1.505e-02   -8.634e-03   -3.657e-03   -5.454e-04   5.408e-04   /
#      CHEB/ -2.791e-01   6.128e-02    1.781e-02    1.926e-02    1.954e-03   /
#      CHEB/ -2.973e-03   -1.364e-03   -3.476e-04   -1.235e-01   -2.053e-02  /
#      CHEB/ 1.021e-02    1.487e-02    7.257e-03    1.118e-03    -5.959e-04  /
#      CHEB/ -3.909e-04   -6.537e-02   -4.306e-02   -1.671e-02   1.985e-03   /
#      CHEB/ 2.847e-03    1.531e-03    6.596e-04    4.398e-05    -1.587e-02  /
#      CHEB/ -3.739e-02   -8.353e-03   -7.989e-03   -2.145e-03   5.797e-04   /
#      CHEB/ 3.374e-04    2.239e-04    6.145e-04    3.000e-03    -8.266e-03  /
#      CHEB/ -2.345e-03   -1.825e-03   -1.128e-03   -1.419e-04   9.011e-05   /

# Reaction 8
chebyshev_reaction('bQOOH[O] (+ M) <=> bQOOHa (+ M)',
                   Tmin=180.0, Tmax=1500.0,
                   Pmin=(0.01, 'atm'), Pmax=(98.692, 'atm'),
                   coeffs=[[-5.80500e+00,  2.30700e+00, -9.54600e-02,  6.90500e-02, -6.53900e-03, -1.01700e-02, -2.01400e-03, -9.54000e-04],
                           [-5.77800e+00,  6.47500e-01,  3.04400e-01, -5.96300e-02,  2.37600e-03,  8.90800e-03,  2.47400e-03,  4.11000e-04],
                           [-3.19300e+00, -3.49800e-01, -6.45500e-02, -2.60400e-02, -1.29400e-02,  1.04100e-03,  2.46100e-03,  1.51500e-03],
                           [-1.60700e+00, -2.19500e-01, -9.25200e-02, -1.19400e-02, -1.90500e-03, -1.15300e-03, -5.21500e-04,  9.57200e-05],
                           [-7.85500e-01, -4.36800e-02, -1.40800e-02, -3.44500e-03, -4.50400e-05, -4.39800e-04, -7.28700e-04, -2.84300e-04],
                           [-2.34900e-01,  1.76600e-02, -6.45700e-03,  6.93600e-03,  1.68100e-03, -8.86700e-04, -2.75600e-04, -6.11900e-05],
                           [-1.32300e-01, -1.50700e-02,  6.04000e-03,  3.47100e-03,  2.04600e-03,  7.14300e-04,  1.90200e-04,  4.31900e-05],
                           [-1.34100e-01, -2.59700e-02, -1.06500e-02, -1.50600e-04,  3.99300e-04,  3.63000e-04,  4.30000e-04,  1.26000e-04],
                           [-5.47300e-02, -2.76700e-02,  8.39600e-04, -4.08600e-03, -1.57200e-03,  3.72700e-04,  1.26400e-04,  6.20100e-05],
                           [ 7.34600e-02,  5.92100e-04, -8.62600e-03, -7.62200e-04, -9.53300e-04, -7.74100e-04, -1.03800e-04,  1.21400e-05]])

# Reaction 9
chebyshev_reaction('O2 + bR (+ M) <=> bQOOHa (+ M)',
                   Tmin=180.0, Tmax=1500.0,
                   Pmin=(0.01, 'atm'), Pmax=(98.692, 'atm'),
                   coeffs=[[ 3.31800e+00,  2.30700e+00,  2.18800e-01,  4.23800e-02, -6.49500e-02, -2.55600e-02, -6.34800e-04,  1.45400e-03],
                           [-3.53200e+00,  2.16700e-01, -2.35100e-02, -9.95200e-05,  6.70500e-02,  2.39000e-02,  1.32600e-03, -2.15300e-03],
                           [-2.04500e+00, -5.43600e-02, -6.04500e-02, -3.18800e-02, -3.42200e-03,  3.90900e-03,  1.26600e-03,  1.35300e-03],
                           [-1.06800e+00, -1.95400e-02, -1.81900e-02, -1.34100e-02, -1.02400e-02, -3.64300e-03, -7.50500e-04,  7.64700e-05],
                           [-5.08200e-01, -5.63300e-04,  2.89800e-02,  5.52300e-03, -2.39500e-03, -2.39000e-03, -1.19000e-03, -3.30100e-04],
                           [-2.54400e-01,  1.38800e-02,  1.33000e-02,  1.57200e-02,  3.21400e-03, -8.26200e-04, -2.45300e-04, -1.30700e-04],
                           [-1.14500e-01, -3.56600e-02,  5.65700e-03,  6.84900e-03,  3.87000e-03,  9.99400e-04,  1.00300e-04,  7.42700e-06],
                           [-4.80000e-02, -3.78600e-02, -1.18400e-02,  1.32600e-03,  1.25800e-03,  6.00000e-04,  4.28000e-04,  7.81000e-05],
                           [-2.63500e-03, -3.62000e-02, -4.69500e-03, -4.84100e-03, -1.14900e-03,  4.38900e-04,  5.77400e-05,  9.93600e-05],
                           [ 2.93300e-03,  2.61300e-03, -9.26900e-03, -1.19600e-03, -9.10700e-04, -5.69900e-04, -6.90000e-06, -4.24500e-06]])
#  bRO2(+M) <=> bQOOH[O](+M)                           1.000e+00 0.000     0.000
#      TCHEB/ 180.000   1500.000 /
#      PCHEB/ 0.010     98.692   /
#      CHEB/ 10 8/
#      CHEB/ -6.921e+00   1.995e+00    -2.528e-02   -1.067e-02   -3.068e-03  /
#      CHEB/ -5.604e-04   -7.278e-05   -1.064e-05   4.053e+00    8.488e-02   /
#      CHEB/ 8.042e-03    2.075e-03    4.157e-04    4.388e-04    4.335e-04   /
#      CHEB/ 2.309e-04    -2.888e+00   4.525e-03    -2.747e-02   -1.184e-02  /
#      CHEB/ -3.456e-03   -5.577e-04   3.602e-05    7.082e-05    -1.541e+00  /
#      CHEB/ 1.092e-02    -1.057e-02   -4.928e-03   -1.419e-03   -4.615e-05  /
#      CHEB/ 1.757e-04    8.300e-05    -8.767e-01   -3.065e-03   -5.413e-03  /
#      CHEB/ -2.175e-03   -6.236e-04   -4.036e-06   1.421e-04    9.979e-05   /
#      CHEB/ -3.241e-01   -2.455e-02   -9.654e-03   -3.627e-03   -9.579e-04  /
#      CHEB/ -5.044e-05   8.753e-05    3.689e-05    -1.946e-01   -1.967e-02  /
#      CHEB/ -3.052e-03   -4.693e-04   -1.440e-04   -4.604e-05   1.879e-05   /
#      CHEB/ 2.613e-05    -1.669e-01   -1.908e-02   -4.108e-03   -8.542e-04  /
#      CHEB/ -1.560e-04   2.291e-05    3.747e-05    1.309e-05    -7.530e-02  /
#      CHEB/ -8.355e-03   -1.151e-03   2.992e-04    7.294e-05    -6.269e-05  /
#      CHEB/ -3.849e-05   -3.020e-06   7.237e-02    -4.946e-03   -3.236e-03  /
#      CHEB/ -9.228e-04   -1.700e-04   -8.664e-06   -9.188e-06   -1.494e-05  /
#  bQOOHg(+M) <=> bQOOH[O](+M)                         1.000e+00 0.000     0.000
#      TCHEB/ 180.000   1500.000 /
#      PCHEB/ 0.010     98.692   /
#      CHEB/ 10 8/
#      CHEB/ -8.366e+00   1.633e+00    2.700e-01    6.347e-02    -1.687e-02  /
#      CHEB/ -1.879e-02   -6.735e-03   1.996e-04    -5.171e+00   7.507e-01   /
#      CHEB/ -5.677e-02   -2.686e-02   2.315e-02    2.065e-02    5.713e-03   /
#      CHEB/ -1.723e-03   -3.558e+00   -1.722e-03   -9.976e-02   -4.525e-02  /
#      CHEB/ -1.925e-02   -2.672e-03   3.678e-03    2.877e-03    -1.795e+00  /