units(length='cm', time='s', quantity='mol', act_energy='kcal/mol')

ideal_gas(name='gas',
          elements="H D T C Ci O Oi N Ne Ar He Si S F Cl Br I X",
          species="""OH             bQOOH[O]       acetone
                     H2O            balkoxyketone  ibutenol
                     trisub_epoxy   bQOOHg         CH2O
                     galkene        O2             bR
                     bQOOHa         bRO2           disub_epoxy
                     HO2""",
          reactions='all',
          initial_state=state(temperature=300.0, pressure=OneAtm))

#-------------------------------------------------------------------------------
# Element data
#-------------------------------------------------------------------------------

element(symbol='Ci', atomic_mass=13.003)
element(symbol='D', atomic_mass=2.014)
element(symbol='Oi', atomic_mass=18.0)
element(symbol='T', atomic_mass=3.016)
element(symbol='X', atomic_mass=195.083)
#-------------------------------------------------------------------------------
# Species data
#-------------------------------------------------------------------------------

species(name='OH',
        atoms='H:1 O:1',
        thermo=(NASA([10.00, 984.14],
                     [ 3.49686242E+00,  1.83973160E-04, -9.97634499E-07,
                       1.56942783E-09, -6.10128175E-13,  3.41673934E+03,
                       1.48093120E+00]),
                NASA([984.14, 3000.00],
                     [ 3.45221464E+00, -2.95124034E-04,  7.39418622E-07,
                      -2.89309866E-10,  3.53041498E-14,  3.45751599E+03,
                       1.85813897E+00])))

species(name='bQOOH[O]',
        atoms='C:4 H:9 O:3',
        thermo=(NASA([10.00, 338.69],
                     [ 3.60915854E+00,  3.39069566E-02,  2.22227265E-04,
                      -8.23527342E-07,  8.56246333E-10, -2.43274290E+04,
                       1.23284605E+01]),
                NASA([338.69, 3000.00],
                     [ 5.03198881E+00,  5.46235886E-02, -3.56935806E-05,
                       1.12371751E-08, -1.35390171E-12, -2.46390117E+04,
                       3.82760723E+00])))

species(name='acetone',
        atoms='C:3 H:6 O:1',
        thermo=(NASA([10.00, 414.35],
                     [ 3.73496166E+00,  3.05743218E-02, -1.26253585E-04,
                       3.66080978E-07, -3.31430437E-10, -2.74812702E+04,
                       8.24936012E+00]),
                NASA([414.35, 3000.00],
                     [ 1.70010292E-01,  3.28431468E-02, -1.80960132E-05,
                       4.82960690E-09, -5.02388538E-13, -2.69098871E+04,
                       2.56372653E+01])))

species(name='H2O',
        atoms='H:2 O:1',
        thermo=(NASA([10.00, 773.84],
                     [ 4.00473541E+00, -2.39729134E-04,  8.11862955E-07,
                       1.47891862E-09, -1.19783539E-12, -3.03533807E+04,
                      -9.96254147E-02]),
                NASA([773.84, 3000.00],
                     [ 3.52133374E+00,  1.05377009E-03,  6.40722099E-07,
                      -3.86240235E-10,  5.49243294E-14, -3.02424794E+04,
                       2.34173094E+00])))

species(name='balkoxyketone',
        atoms='C:4 H:7 O:2',
        thermo=(NASA([10.00, 269.93],
                     [ 3.81931151E+00,  1.68519318E-02,  2.42742224E-04,
                      -9.64821161E-07,  1.18509335E-09, -1.91834727E+04,
                       1.20521854E+01]),
                NASA([269.93, 3000.00],
                     [ 3.57555944E+00,  4.28868089E-02, -2.65390705E-05,
                       7.99659117E-09, -9.32983470E-13, -1.92520008E+04,
                       1.13957990E+01])))

species(name='ibutenol',
        atoms='C:4 H:8 O:1',
        thermo=(NASA([10.00, 135.97],
                     [ 3.95714996E+00,  5.72646980E-03,  4.63611760E-04,
                      -3.04137514E-06,  6.85019471E-09, -2.49605522E+04,
                       8.21931848E+00]),
                NASA([135.97, 3000.00],
                     [ 3.32467612E+00,  3.69033556E-02, -1.89960416E-05,
                       4.73417677E-09, -4.59705291E-13, -2.49549736E+04,
                       9.58133237E+00])))

species(name='trisub_epoxy',
        atoms='C:4 H:8 O:2',
        thermo=(NASA([10.00, 209.19],
                     [ 3.75295042E+00,  2.37546930E-02,  1.26610110E-04,
                      -4.78364365E-07,  5.79468168E-10, -3.86308563E+04,
                       1.12739684E+01]),
                NASA([209.19, 3000.00],
                     [ 2.64185254E+00,  4.50006531E-02, -2.57361066E-05,
                       7.15266054E-09, -7.72980731E-13, -3.85843707E+04,
                       1.48960343E+01])))

species(name='bQOOHg',
        atoms='C:4 H:9 O:3',
        thermo=(NASA([10.00, 441.09],
                     [ 3.56595280E+00,  3.36073467E-02,  2.03462772E-04,
                      -5.98977617E-07,  4.83271168E-10, -2.38422367E+04,
                       1.33537891E+01]),
                NASA([441.09, 3000.00],
                     [ 6.09031192E+00,  5.80517622E-02, -4.06392697E-05,
                       1.32574026E-08, -1.62501077E-12, -2.45254222E+04,
                      -1.97849715E+00])))

species(name='CH2O',
        atoms='C:1 H:2 O:1',
        thermo=(NASA([10.00, 601.31],
                     [ 4.03190845E+00, -1.93233367E-03,  8.89743345E-06,
                       2.98105926E-09, -7.90813886E-12, -1.42276270E+04,
                       3.47574660E+00]),
                NASA([601.31, 3000.00],
                     [ 1.40134195E+00,  9.48858016E-03, -4.43088317E-06,
                       9.48452194E-10, -7.43790219E-14, -1.38013869E+04,
                       1.57423780E+01])))

species(name='galkene',
        atoms='C:4 H:8 O:1',
        thermo=(NASA([10.00, 383.47],
                     [ 3.84035604E+00,  1.20378740E-02,  1.87486319E-04,
                      -5.44759148E-07,  4.80711015E-10, -1.99587847E+04,
                       1.02570291E+01]),
                NASA([383.47, 3000.00],
                     [ 4.00413385E+00,  3.79025144E-02, -2.15435710E-05,
                       6.15213311E-09, -6.97446345E-13, -2.01740741E+04,
                       6.98052628E+00])))

species(name='O2',
        atoms='O:2',
        thermo=(NASA([10.00, 605.96],
                     [ 3.50743498E+00, -4.43860349E-04,  1.45938058E-06,
                       1.61509333E-09, -2.32050052E-12, -9.24756224E+02,
                       4.72183634E+00]),
                NASA([605.96, 3000.00],
                     [ 2.87462882E+00,  2.17840991E-03, -1.18262921E-06,
                       2.86910493E-10, -2.53297146E-14, -8.19517838E+02,
                       7.69331810E+00])))

species(name='bR',
        atoms='C:4 H:9 O:1',
        thermo=(NASA([10.00, 483.43],
                     [ 3.38164846E+00,  5.97142637E-02, -1.58320095E-04,
                       3.04908893E-07, -2.13091806E-10, -1.53076737E+04,
                       1.09226843E+01]),
                NASA([483.43, 3000.00],
                     [ 2.33428824E+00,  4.22094427E-02, -2.28029290E-05,
                       6.04614564E-09, -6.30240159E-13, -1.49005918E+04,
                       1.83772893E+01])))

species(name='bQOOHa',
        atoms='C:4 H:9 O:3',
        thermo=(NASA([10.00, 390.53],
                     [ 3.54969236E+00,  3.76592474E-02,  1.76622653E-04,
                      -5.98063750E-07,  5.45069236E-10, -2.62202271E+04,
                       1.31518761E+01]),
                NASA([390.53, 3000.00],
                     [ 5.33564209E+00,  5.64935715E-02, -3.83214298E-05,
                       1.22990604E-08, -1.49549987E-12, -2.66428371E+04,
                       2.59015836E+00])))

species(name='bRO2',
        atoms='C:4 H:9 O:3',
        thermo=(NASA([10.00, 461.39],
                     [ 3.53964713E+00,  3.88723795E-02,  9.57420148E-05,
                      -2.80380499E-07,  2.09647462E-10, -3.17404312E+04,
                       1.18803618E+01]),
                NASA([461.39, 3000.00],
                     [ 3.47201723E+00,  6.00510247E-02, -4.00567321E-05,
                       1.25663813E-08, -1.49496682E-12, -3.19533780E+04,
                       9.77903975E+00])))

species(name='disub_epoxy',
        atoms='C:4 H:8 O:2',
        thermo=(NASA([10.00, 549.41],
                     [ 3.89863211E+00,  5.97532637E-03,  1.66685676E-04,
                      -3.10743768E-07,  1.78330192E-10, -3.70424820E+04,
                       1.13847308E+01]),
                NASA([549.41, 3000.00],
                     [-6.40277648E-01,  6.05960003E-02, -4.13427220E-05,
                       1.31555461E-08, -1.57685017E-12, -3.68693652E+04,
                       2.76005436E+01])))

species(name='HO2',
        atoms='H:1 O:2',
        thermo=(NASA([10.00, 891.11],
                     [ 4.02887004E+00, -1.75769289E-03,  1.08726004E-05,
                      -1.13812972E-08,  3.90113097E-12,  4.95165001E+02,
                       4.69302008E+00]),
                NASA([891.11, 3000.00],
                     [ 3.06571044E+00,  4.28505005E-03, -2.19325920E-06,
                       5.58882699E-10, -5.61246669E-14,  5.98557610E+02,
                       8.84564156E+00])))

#-------------------------------------------------------------------------------
# Reaction data
#-------------------------------------------------------------------------------

# Reaction 1
chebyshev_reaction('bQOOHg (+ M) <=> bRO2 (+ M)',
                   Tmin=180.0, Tmax=1500.0,
                   Pmin=(0.01, 'atm'), Pmax=(98.692, 'atm'),
                   coeffs=[[ 1.86300e+00,  7.31500e-01, -1.00300e-01, -5.20300e-03,  1.75100e-03,  1.75700e-04, -8.00400e-05, -2.42900e-05],
                           [ 2.71300e+00,  1.26700e+00, -1.60600e-01, -1.31000e-02,  3.44700e-03,  4.74300e-04, -1.62500e-04, -5.55200e-05],
                           [ 3.84400e-01,  8.07400e-01, -7.36600e-02, -1.66600e-02,  2.67400e-03,  7.88300e-04, -1.39100e-04, -7.29800e-05],
                           [-2.84200e-01,  3.53400e-01, -2.44700e-03, -1.44700e-02,  7.27000e-04,  1.07500e-03, -4.14300e-05, -9.19200e-05],
                           [-2.46400e-01,  8.45700e-02,  2.23700e-02, -7.40700e-03, -1.31100e-03,  1.04800e-03,  1.16400e-04, -9.57400e-05],
                           [-8.64700e-02, -8.63100e-04,  1.61700e-02, -1.59600e-03, -2.08300e-03,  6.72900e-04,  2.42600e-04, -6.88700e-05],
                           [-8.91500e-03, -2.09700e-03,  6.32300e-03,  8.30800e-05, -1.63500e-03,  2.17600e-04,  2.59400e-04, -1.72300e-05],
                           [ 1.80800e-03,  3.78000e-03,  3.34900e-03, -2.01400e-04, -9.29000e-04, -7.69200e-05,  1.82700e-04,  3.10500e-05],
                           [-1.74100e-03, -7.33100e-04,  3.22900e-03, -2.57900e-05, -4.82400e-04, -1.90300e-04,  8.52700e-05,  5.23600e-05],
                           [-3.92500e-04, -5.34600e-03,  1.93900e-03,  5.42200e-04, -1.97100e-04, -1.98700e-04,  1.54700e-05,  4.63900e-05]])

# Reaction 2
chebyshev_reaction('bQOOHa (+ M) <=> bRO2 (+ M)',
                   Tmin=180.0, Tmax=1500.0,
                   Pmin=(0.01, 'atm'), Pmax=(98.692, 'atm'),
                   coeffs=[[ 7.50600e-01,  1.50500e+00, -1.44900e-01, -2.54100e-02, -3.92800e-04,  2.31800e-04, -7.64700e-05,  8.92300e-05],
                           [ 2.95700e+00,  1.62900e+00, -2.00900e-02, -2.84000e-02, -1.09000e-02, -7.58100e-04,  5.36100e-04,  8.69400e-05],
                           [ 5.40100e-01,  3.37300e-01,  5.78300e-02,  1.87700e-02, -2.56100e-03, -3.03300e-03, -7.36000e-04,  6.42900e-05],
                           [-2.55600e-01,  9.64600e-02, -1.40600e-03,  7.65800e-03,  7.05000e-03,  5.47500e-04, -8.94800e-04, -3.79200e-04],
                           [-2.98100e-01,  1.16900e-01, -8.70400e-03, -6.50800e-03,  1.46400e-03,  1.79500e-03,  5.04300e-04, -1.63800e-04],
                           [-1.08200e-01,  4.64700e-02,  8.46600e-03, -1.84900e-03, -2.80000e-03, -3.77200e-06,  5.69200e-04,  2.11900e-04],
                           [ 4.34200e-03, -1.72200e-02,  9.20500e-03,  2.67800e-03, -1.03700e-03, -6.83600e-04, -8.82900e-05,  1.32000e-04],
                           [ 1.05700e-02, -1.64100e-02,  4.02600e-04,  1.71600e-03,  7.63500e-04, -2.00600e-04, -2.23600e-04, -4.03000e-05],
                           [-5.92700e-03,  1.63200e-03, -2.74700e-03, -8.24800e-05,  5.26000e-04,  1.62300e-04, -3.89400e-05, -5.94900e-05],
                           [-4.33600e-03,  2.33200e-03, -1.52300e-04, -3.74300e-04, -1.68200e-04,  1.30700e-04,  5.76600e-05, -1.01700e-05]])

# Reaction 3
chebyshev_reaction('bQOOH[O] (+ M) <=> bRO2 (+ M)',
                   Tmin=180.0, Tmax=1500.0,
                   Pmin=(0.01, 'atm'), Pmax=(98.692, 'atm'),
                   coeffs=[[ 9.43100e+00,  1.72900e+00, -2.49700e-01, -6.87600e-02, -1.91300e-04,  7.78700e-03,  2.31800e-03, -4.20800e-04],
                           [-6.31300e-01,  5.56500e-01,  4.44700e-02, -1.03000e-02, -1.55600e-02, -4.62300e-03,  1.29000e-03,  1.44300e-03],
                           [-4.86000e-01,  3.09900e-01,  6.67000e-04,  1.99800e-03, -1.21500e-03, -2.43900e-03, -9.13400e-04,  2.40700e-04],
                           [-2.75500e-01,  1.95200e-01, -6.19700e-03, -1.18900e-03,  1.57100e-03,  4.79300e-05, -5.94900e-04, -3.02600e-04],
                           [-1.79000e-01,  1.22000e-01,  3.54700e-03, -1.85500e-03, -1.01900e-04,  4.43900e-05, -1.89000e-05, -8.33700e-05],
                           [-1.05500e-01,  6.13100e-02,  7.43800e-03, -2.79100e-04, -4.27300e-04, -2.19500e-04, -1.15700e-05,  1.83300e-05],
                           [-5.05700e-02,  2.13800e-02,  5.22900e-03,  8.42800e-04,  1.97200e-05, -1.39700e-04, -7.78000e-05, -1.21400e-05],
                           [-1.62800e-02, -6.25100e-04,  1.91500e-03,  1.67800e-03,  3.60300e-04, -8.99700e-05, -1.14900e-04, -4.69200e-05],
                           [-1.72600e-02,  7.53900e-03,  2.14900e-03, -3.29300e-05, -3.86500e-04, -1.90000e-05,  8.95100e-05,  3.99500e-05],
                           [ 6.42400e-03, -9.00300e-03, -1.99800e-03,  1.29800e-03,  6.50500e-04, -9.15900e-06, -1.24700e-04, -5.36300e-05]])

# Reaction 4
chebyshev_reaction('O2 + bR (+ M) <=> bRO2 (+ M)',
                   Tmin=180.0, Tmax=1500.0,
                   Pmin=(0.01, 'atm'), Pmax=(98.692, 'atm'),
                   coeffs=[[ 1.19300e+01,  5.57000e-01, -8.13100e-02,  2.87700e-03, -1.27700e-03,  3.91600e-05,  9.69700e-06,  2.29900e-05],
                           [-1.01500e+00,  8.09100e-01, -6.97600e-02, -1.28500e-02,  8.61500e-04, -1.07500e-04, -3.86200e-05,  6.09400e-06],
                           [-4.78600e-01,  3.50300e-01,  2.16000e-02, -1.41800e-02, -9.90400e-04,  3.18200e-04,  2.71400e-05, -4.43200e-05],
                           [-2.09400e-01,  9.02300e-02,  3.31600e-02, -2.44300e-03, -1.93900e-03, -9.96600e-05,  1.23600e-04, -3.68500e-06],
                           [-8.68700e-02,  1.71400e-02,  1.35300e-02,  2.76500e-03, -5.66900e-04, -3.39200e-04,  5.92700e-06,  3.71800e-05],
                           [-4.25900e-02,  8.85700e-03,  2.73300e-03,  1.56700e-03,  2.07100e-04, -9.84900e-05, -6.63500e-05,  1.27000e-05],
                           [-2.10200e-02,  3.68000e-03,  1.83800e-03,  2.29800e-04,  2.94000e-05,  4.86200e-05, -1.89800e-05, -1.04600e-05],
                           [-6.75000e-03, -2.95000e-03,  2.00400e-03,  2.37600e-04, -1.17000e-04,  4.65700e-06,  1.34800e-05, -5.48400e-06],
                           [ 8.97300e-04, -5.48200e-03,  9.65100e-04,  3.92300e-04, -4.90400e-06, -3.19900e-05,  1.35100e-08,  1.14800e-06],
                           [ 2.86700e-03, -4.05600e-03, -3.55900e-06,  2.43300e-04,  4.99500e-05, -3.47800e-06, -3.36200e-06,  7.36400e-08]])
#  bRO2(+M) <=> bQOOHg(+M)                             1.000e+00 0.000     0.000
#      TCHEB/ 180.000   1500.000 /
#      PCHEB/ 0.010     98.692   /
#      CHEB/ 10 8/
#      CHEB/ -7.856e+00   7.315e-01    -1.003e-01   -5.203e-03   1.751e-03   /
#      CHEB/ 1.757e-04    -8.004e-05   -2.429e-05   1.149e+01    1.267e+00   /
#      CHEB/ -1.606e-01   -1.310e-02   3.447e-03    4.743e-04    -1.625e-04  /
#      CHEB/ -5.552e-05   5.301e-01    8.074e-01    -7.366e-02   -1.666e-02  /
#      CHEB/ 2.674e-03    7.883e-04    -1.391e-04   -7.298e-05   -2.471e-01  /
#      CHEB/ 3.534e-01    -2.447e-03   -1.447e-02   7.270e-04    1.075e-03   /
#      CHEB/ -4.143e-05   -9.192e-05   -2.407e-01   8.457e-02    2.237e-02   /
#      CHEB/ -7.407e-03   -1.311e-03   1.048e-03    1.164e-04    -9.574e-05  /
#      CHEB/ -8.661e-02   -8.631e-04   1.617e-02    -1.596e-03   -2.083e-03  /
#      CHEB/ 6.729e-04    2.426e-04    -6.887e-05   -9.494e-03   -2.097e-03  /
#      CHEB/ 6.323e-03    8.308e-05    -1.635e-03   2.176e-04    2.594e-04   /
#      CHEB/ -1.723e-05   1.356e-03    3.780e-03    3.349e-03    -2.014e-04  /
#      CHEB/ -9.290e-04   -7.692e-05   1.827e-04    3.105e-05    -2.065e-03  /
#      CHEB/ -7.331e-04   3.229e-03    -2.579e-05   -4.824e-04   -1.903e-04  /
#      CHEB/ 8.527e-05    5.236e-05    -5.788e-04   -5.346e-03   1.939e-03   /
#      CHEB/ 5.422e-04    -1.971e-04   -1.987e-04   1.547e-05    4.639e-05   /

# Reaction 5
chebyshev_reaction('bQOOHa (+ M) <=> bQOOHg (+ M)',
                   Tmin=180.0, Tmax=1500.0,
                   Pmin=(0.01, 'atm'), Pmax=(98.692, 'atm'),
                   coeffs=[[-9.29500e+00,  7.64800e-01, -3.02100e-01, -5.04300e-02, -5.93300e-04,  3.47500e-03,  6.12300e-04, -2.48100e-04],
                           [ 9.65100e+00,  2.05400e+00, -3.24700e-02, -8.48700e-04, -9.50500e-03, -5.72300e-03, -3.05000e-04,  6.85900e-04],
                           [ 4.45300e-01,  7.00000e-01, -1.64900e-02, -9.04900e-03,  1.28600e-02,  2.45400e-03, -1.75200e-03, -9.32600e-04],
                           [-4.02900e-01,  1.25900e-01,  4.87100e-02, -2.10000e-02, -2.06100e-03,  4.15800e-03,  1.31700e-03, -2.43100e-04],
                           [-3.35300e-02, -4.55100e-02,  3.81500e-02, -4.36200e-03, -5.82000e-03,  7.50100e-04,  8.48800e-04,  2.12300e-04],
                           [ 5.79400e-02, -2.80000e-02,  1.63600e-02, -4.60200e-04, -3.35500e-03,  2.52100e-05,  4.31500e-04, -1.02400e-05],
                           [ 1.17300e-02, -4.89300e-03,  1.17000e-02,  3.52700e-04, -2.50100e-03, -4.90700e-04,  4.77800e-04,  1.06100e-04],
                           [-3.38000e-03, -5.80200e-03,  5.36200e-03,  3.17800e-03, -1.24300e-03, -9.42700e-04,  1.77300e-04,  1.98900e-04],
                           [-4.72500e-03, -3.89200e-03, -1.31000e-03,  3.07300e-03,  9.46000e-05, -7.35600e-04, -8.22100e-05,  1.29700e-04],
                           [ 6.76600e-04, -1.11600e-03, -2.97400e-03,  1.35300e-03,  5.80800e-04, -3.14100e-04, -1.66600e-04,  4.61900e-05]])

# Reaction 6
chebyshev_reaction('bQOOH[O] (+ M) <=> bQOOHg (+ M)',
                   Tmin=180.0, Tmax=1500.0,
                   Pmin=(0.01, 'atm'), Pmax=(98.692, 'atm'),
                   coeffs=[[-1.40000e+00,  4.59000e-01, -3.44200e-01, -7.41500e-02, -1.76000e-04,  8.50800e-03,  2.73500e-03, -4.92400e-04],
                           [ 5.42000e+00,  1.61600e+00, -1.13600e-01, -9.30100e-03, -5.97300e-03, -4.77600e-03, -3.70300e-04,  1.05500e-03],
                           [ 2.44700e-01,  8.91300e-01, -2.36600e-02, -1.39800e-02, -1.44400e-04, -1.85200e-03, -8.51800e-04,  1.98900e-04],
                           [-4.34000e-01,  2.77600e-01,  3.04300e-02, -1.00900e-02,  1.39000e-03,  7.10500e-04, -7.80600e-04, -3.83800e-04],
                           [-1.88000e-01,  1.92900e-02,  3.63300e-02, -3.03900e-03, -1.53800e-03,  1.14500e-03, -7.90200e-05, -3.00000e-04],
                           [-2.13400e-04, -1.88700e-02,  2.00500e-02,  1.73100e-04, -2.41300e-03,  6.49400e-04,  3.09300e-04, -1.33700e-04],
                           [ 1.85200e-02, -4.18800e-03,  1.06700e-02, -2.26400e-04, -1.72200e-03,  1.10800e-04,  3.42300e-04, -1.40900e-05],
                           [ 2.31800e-03, -5.89700e-03,  6.99400e-03,  4.26800e-04, -6.61900e-04, -2.17600e-04,  1.19900e-04,  2.40700e-05],
                           [-1.75700e-02,  1.01900e-03,  6.69500e-03,  6.22400e-04, -1.17700e-03, -4.86300e-04,  2.20200e-04,  1.57800e-04],
                           [ 7.30200e-03, -1.25500e-02, -1.90400e-03,  1.77700e-03,  7.83800e-04, -1.68100e-04, -1.57600e-04, -2.55200e-05]])

# Reaction 7
chebyshev_reaction('O2 + bR (+ M) <=> bQOOHg (+ M)',
                   Tmin=180.0, Tmax=1500.0,
                   Pmin=(0.01, 'atm'), Pmax=(98.692, 'atm'),
                   coeffs=[[ 5.25500e+00, -6.38600e-01, -2.27900e-01,  1.36500e-02, -2.27100e-03,  7.27500e-04,  7.54900e-05, -6.45300e-05],
                           [ 1.66100e+00,  1.70300e+00, -1.38000e-01, -4.31500e-02,  8.69800e-03,  2.28700e-04,  1.53200e-05, -6.34500e-05],
                           [ 1.38700e-01,  5.21000e-01,  5.56100e-02, -3.55100e-02,  3.39000e-04,  2.48700e-03, -1.43800e-04, -1.07600e-04],
                           [-5.09000e-02,  3.79200e-02,  5.27600e-02, -1.15500e-02, -3.96500e-03,  2.44300e-03,  3.33400e-04, -2.08600e-04],
                           [ 1.97500e-02, -1.77700e-02,  2.30900e-02, -3.70500e-03, -5.05600e-03,  1.37500e-03,  8.45200e-04, -1.49400e-04],
                           [ 2.91200e-02,  2.90800e-03,  1.40400e-02,  5.09300e-04, -4.81400e-03, -2.71300e-04,  9.09300e-04,  8.31300e-05],
                           [ 5.24400e-03,  2.40800e-03,  8.53400e-03,  3.99500e-03, -2.55800e-03, -1.29200e-03,  4.63000e-04,  2.45700e-04],
                           [-3.65300e-03, -3.78600e-03,  1.85700e-03,  3.93700e-03, -2.25100e-04, -1.16200e-03, -2.62700e-06,  2.29500e-04],
                           [-3.12300e-03, -4.17200e-03, -1.47200e-03,  1.86600e-03,  7.05900e-04, -5.97800e-04, -2.09200e-04,  1.30600e-04],
                           [ 8.52200e-04, -1.38500e-03, -1.55100e-03,  4.24700e-04,  6.08700e-04, -1.80200e-04, -2.13400e-04,  3.51500e-05]])
#  bRO2(+M) <=> bQOOHa(+M)                             1.000e+00 0.000     0.000
#      TCHEB/ 180.000   1500.000 /
#      PCHEB/ 0.010     98.692   /
#      CHEB/ 10 8/
#      CHEB/ -5.860e+00   1.505e+00    -1.449e-01   -2.541e-02   -3.928e-04  /
#      CHEB/ 2.318e-04    -7.647e-05   8.923e-05    9.063e+00    1.629e+00   /
#      CHEB/ -2.009e-02   -2.840e-02   -1.090e-02   -7.581e-04   5.361e-04   /
#      CHEB/ 8.694e-05    5.951e-01    3.373e-01    5.783e-02    1.877e-02   /
#      CHEB/ -2.561e-03   -3.033e-03   -7.360e-04   6.429e-05    -2.544e-01  /
#      CHEB/ 9.646e-02    -1.406e-03   7.658e-03    7.050e-03    5.475e-04   /
#      CHEB/ -8.948e-04   -3.792e-04   -3.029e-01   1.169e-01    -8.704e-03  /
#      CHEB/ -6.508e-03   1.464e-03    1.795e-03    5.043e-04    -1.638e-04  /
#      CHEB/ -1.109e-01   4.647e-02    8.466e-03    -1.849e-03   -2.800e-03  /
#      CHEB/ -3.772e-06   5.692e-04    2.119e-04    2.995e-03    -1.722e-02  /
#      CHEB/ 9.205e-03    2.678e-03    -1.037e-03   -6.836e-04   -8.829e-05  /
#      CHEB/ 1.320e-04    9.845e-03    -1.641e-02   4.026e-04    1.716e-03   /
#      CHEB/ 7.635e-04    -2.006e-04   -2.236e-04   -4.030e-05   -6.275e-03  /
#      CHEB/ 1.632e-03    -2.747e-03   -8.248e-05   5.260e-04    1.623e-04   /
#      CHEB/ -3.894e-05   -5.949e-05   -4.456e-03   2.332e-03    -1.523e-04  /
#      CHEB/ -3.743e-04   -1.682e-04   1.307e-04    5.766e-05    -1.017e-05  /
#  bQOOHg(+M) <=> bQOOHa(+M)                           1.000e+00 0.000     0.000
#      TCHEB/ 180.000   1500.000 /
#      PCHEB/ 0.010     98.692   /
#      CHEB/ 10 8/
#      CHEB/ -6.187e+00   7.648e-01    -3.021e-01   -5.043e-02   -5.933e-04  /
#      CHEB/ 3.475e-03    6.123e-04    -2.481e-04   6.979e+00    2.054e+00   /
#      CHEB/ -3.247e-02   -8.487e-04   -9.505e-03   -5.723e-03   -3.050e-04  /
#      CHEB/ 6.859e-04    3.545e-01    7.000e-01    -1.649e-02   -9.049e-03  /
#      CHEB/ 1.286e-02    2.454e-03    -1.752e-03   -9.326e-04   -4.387e-01  /
#      CHEB/ 1.259e-01    4.871e-02    -2.100e-02   -2.061e-03   4.158e-03   /
#      CHEB/ 1.317e-03    -2.431e-04   -4.410e-02   -4.551e-02   3.815e-02   /
#      CHEB/ -4.362e-03   -5.820e-03   7.501e-04    8.488e-04    2.123e-04   /
#      CHEB/ 5.531e-02    -2.800e-02   1.636e-02    -4.602e-04   -3.355e-03  /
#      CHEB/ 2.521e-05    4.315e-04    -1.024e-05   1.096e-02    -4.893e-03  /
#      CHEB/ 1.170e-02    3.527e-04    -2.501e-03   -4.907e-04   4.778e-04   /
#      CHEB/ 1.061e-04    -3.651e-03   -5.802e-03   5.362e-03    3.178e-03   /
#      CHEB/ -1.243e-03   -9.427e-04   1.773e-04    1.989e-04    -4.749e-03  /
#      CHEB/ -3.892e-03   -1.310e-03   3.073e-03    9.460e-05    -7.356e-04  /
#      CHEB/ -8.221e-05   1.297e-04    7.435e-04    -1.116e-03   -2.974e-03  /
#      CHEB/ 1.353e-03    5.808e-04    -3.141e-04   -1.666e-04   4.619e-05   /

# Reaction 8
chebyshev_reaction('bQOOH[O] (+ M) <=> bQOOHa (+ M)',
                   Tmin=180.0, Tmax=1500.0,
                   Pmin=(0.01, 'atm'), Pmax=(98.692, 'atm'),
                   coeffs=[[-1.52500e-01,  1.55900e+00, -4.51300e-01, -1.05800e-01,  4.48800e-04,  1.00000e-02,  2.74900e-03, -5.57500e-04],
                           [ 3.89100e+00,  1.46300e+00,  1.65800e-01, -1.22700e-02, -2.99500e-02, -8.51800e-03,  1.23600e-03,  1.73100e-03],
                           [ 1.07900e-01,  4.58700e-01,  3.86900e-02,  3.18500e-02,  3.36200e-03, -5.98100e-03, -2.60400e-03,  1.58600e-04],
                           [-5.05000e-01,  1.78200e-01,  7.63900e-03,  9.25900e-04,  6.10300e-03,  2.18000e-03, -7.71500e-04, -8.03300e-04],
                           [-2.08500e-01,  3.40200e-02,  2.35700e-02, -7.07000e-04, -1.87200e-03,  5.41600e-04,  6.80200e-04,  4.21300e-05],
                           [ 3.43600e-03, -2.02600e-02,  1.38700e-02,  4.37900e-03, -1.01900e-03, -9.66300e-04, -4.88600e-05,  2.17100e-04],
                           [ 2.12200e-02, -1.57600e-02,  2.34400e-03,  2.38100e-03,  6.92000e-04, -1.69500e-04, -2.93900e-04, -6.73900e-05],
                           [ 3.41300e-03, -9.53700e-03,  2.74000e-04,  4.14500e-04,  7.00600e-04,  2.27500e-04, -1.28000e-04, -1.20100e-04],
                           [-1.65100e-02,  4.21900e-03,  4.58200e-03, -8.11200e-04, -8.31500e-04, -6.44200e-05,  2.06200e-04,  7.86700e-05],
                           [ 9.03000e-03, -1.21200e-02, -8.90800e-04,  8.45900e-04,  6.62000e-04,  4.48300e-05, -1.42600e-04, -5.75300e-05]])

# Reaction 9
chebyshev_reaction('O2 + bR (+ M) <=> bQOOHa (+ M)',
                   Tmin=180.0, Tmax=1500.0,
                   Pmin=(0.01, 'atm'), Pmax=(98.692, 'atm'),
                   coeffs=[[ 5.85700e+00,  5.70400e-01, -2.21200e-01, -4.94100e-02, -1.17300e-02,  1.29100e-03,  1.91700e-03,  5.05300e-04],
                           [ 7.64700e-01,  1.18600e+00,  6.91700e-02,  1.15700e-02,  5.40400e-04, -5.22700e-03, -2.65300e-03, -2.48300e-04],
                           [-1.05300e-01,  2.75800e-01,  7.64200e-02,  1.62100e-03,  1.70200e-03,  1.37400e-03, -1.50200e-04, -4.99800e-04],
                           [-1.03100e-01, -4.42100e-02,  3.52600e-02,  7.64000e-03, -3.28900e-04,  3.22000e-04,  4.48300e-04,  8.92800e-05],
                           [ 1.29600e-02, -4.88500e-02,  1.53100e-03,  5.11800e-03,  5.77100e-04, -1.89900e-04,  3.61100e-05,  1.19000e-04],
                           [ 3.43000e-02, -7.95900e-03, -3.82100e-03,  9.79600e-04,  3.84800e-04, -6.69300e-06, -5.72500e-05,  5.13400e-06],
                           [ 1.11700e-02,  2.55500e-03, -3.29200e-04,  2.75700e-04,  8.61400e-06, -5.82900e-05, -1.49200e-05, -8.01700e-06],
                           [-5.37500e-04, -1.63700e-03, -1.93900e-04,  4.96200e-04,  2.05500e-04, -4.01500e-05, -2.54600e-05, -8.51200e-06],
                           [-3.73900e-03, -2.29300e-03, -8.27900e-04,  1.56100e-04,  2.34100e-04,  1.14700e-05, -2.44800e-05, -4.04300e-06],
                           [ 1.29000e-03, -1.47100e-03, -1.21300e-03, -2.36200e-04,  1.32700e-04,  8.05500e-05,  5.75900e-06, -8.45900e-06]])
#  bRO2(+M) <=> bQOOH[O](+M)                           1.000e+00 0.000     0.000
#      TCHEB/ 180.000   1500.000 /
#      PCHEB/ 0.010     98.692   /
#      CHEB/ 10 8/
#      CHEB/ -1.466e-01   1.729e+00    -2.497e-01   -6.876e-02   -1.913e-04  /
#      CHEB/ 7.787e-03    2.318e-03    -4.208e-04   7.361e+00    5.565e-01   /
#      CHEB/ 4.447e-02    -1.030e-02   -1.556e-02   -4.623e-03   1.290e-03   /
#      CHEB/ 1.443e-03    -4.919e-01   3.099e-01    6.670e-04    1.998e-03   /
#      CHEB/ -1.215e-03   -2.439e-03   -9.134e-04   2.407e-04    -2.966e-01  /
#      CHEB/ 1.952e-01    -6.197e-03   -1.189e-03   1.571e-03    4.793e-05   /
#      CHEB/ -5.949e-04   -3.026e-04   -1.898e-01   1.220e-01    3.547e-03   /
#      CHEB/ -1.855e-03   -1.019e-04   4.439e-05    -1.890e-05   -8.337e-05  /
#      CHEB/ -1.095e-01   6.131e-02    7.438e-03    -2.791e-04   -4.273e-04  /
#      CHEB/ -2.195e-04   -1.157e-05   1.833e-05    -5.209e-02   2.138e-02   /
#      CHEB/ 5.229e-03    8.428e-04    1.972e-05    -1.397e-04   -7.780e-05  /
#      CHEB/ -1.214e-05   -1.690e-02   -6.251e-04   1.915e-03    1.678e-03   /
#      CHEB/ 3.603e-04    -8.997e-05   -1.149e-04   -4.692e-05   -1.744e-02  /
#      CHEB/ 7.539e-03    2.149e-03    -3.293e-05   -3.865e-04   -1.900e-05  /
#      CHEB/ 8.951e-05    3.995e-05    6.430e-03    -9.003e-03   -1.998e-03  /
#      CHEB/ 1.298e-03    6.505e-04    -9.159e-06   -1.247e-04   -5.363e-05  /
#  bQOOHg(+M) <=> bQOOH[O](+M)                         1.000e+00 0.000     0.000
#      TCHEB/ 180.000   1500.000 /
#      PCHEB/ 0.010     98.692   /
#      CHEB/ 10 8/
#      CHEB/ -1.259e+00   4.590e-01    -3.442e-01   -7.415e-02   -1.760e-04  /
#      CHEB/ 8.508e-03    2.735e-03    -4.924e-04   4.634e+00    1.616e+00   /
#      CHEB/ -1.136e-01   -9.301e-03   -5.973e-03   -4.776e-03   -3.703e-04  /
#      CHEB/ 1.055e-03    9.310e-02    8.913e-01    -2.366e-02   -1.398e-02  /
#      CHEB/ -1.444e-04   -1.852e-03   -8.518e-04   1.989e-04    -4.922e-01  /