units(length='cm', time='s', quantity='mol', act_energy='kcal/mol')

ideal_gas(name='gas',
          elements="H D T C Ci O Oi N Ne Ar He Si S F Cl Br I X",
          species="""aOOHbalkene      OH               ibutanal
                     aR               performic_acid   disub_c4ether
                     aQOOHb           H                aadduct
                     trisub_epoxy     ibutenol         aQOOH[O]
                     ipropyl          aRO2             O2
                     formic_acid      propene          aQOOHg
                     ibut_peroxyacid  HO2              CH3""",
          reactions='all',
          initial_state=state(temperature=300.0, pressure=OneAtm))

#-------------------------------------------------------------------------------
# Element data
#-------------------------------------------------------------------------------

element(symbol='Ci', atomic_mass=13.003)
element(symbol='D', atomic_mass=2.014)
element(symbol='Oi', atomic_mass=18.0)
element(symbol='T', atomic_mass=3.016)
element(symbol='X', atomic_mass=195.083)
#-------------------------------------------------------------------------------
# Species data
#-------------------------------------------------------------------------------

species(name='aOOHbalkene',
        atoms='C:3 H:6 O:3',
        thermo=(NASA([10.00, 497.41],
                     [ 3.76691735E+00,  1.51417956E-02,  1.85499431E-04,
                      -4.61303214E-07,  3.27678941E-10, -3.06224192E+04,
                       1.09903968E+01]),
                NASA([497.41, 3000.00],
                     [ 6.20882781E+00,  4.08866173E-02, -2.89934946E-05,
                       9.60428979E-09, -1.19355432E-12, -3.14267485E+04,
                      -4.72842811E+00])))

species(name='OH',
        atoms='H:1 O:1',
        thermo=(NASA([10.00, 984.14],
                     [ 3.49686242E+00,  1.83973160E-04, -9.97634499E-07,
                       1.56942783E-09, -6.10128175E-13,  3.41673934E+03,
                       1.48093120E+00]),
                NASA([984.14, 3000.00],
                     [ 3.45221464E+00, -2.95124034E-04,  7.39418622E-07,
                      -2.89309866E-10,  3.53041498E-14,  3.45751599E+03,
                       1.85813897E+00])))

species(name='ibutanal',
        atoms='C:4 H:8 O:1',
        thermo=(NASA([10.00, 683.88],
                     [ 3.57157346E+00,  3.36936906E-02, -1.78475021E-05,
                       1.31946716E-08, -7.58008388E-12, -2.81816510E+04,
                       1.05595084E+01]),
                NASA([683.88, 3000.00],
                     [ 1.29043622E+00,  4.14804229E-02, -2.27411206E-05,
                       6.08619500E-09, -6.38995128E-13, -2.77397319E+04,
                       2.16477430E+01])))

species(name='aR',
        atoms='C:4 H:9 O:1',
        thermo=(NASA([10.00, 455.22],
                     [ 3.59625500E+00,  3.38947981E-02,  7.37257079E-06,
                      -3.99275335E-08,  2.49019944E-11, -1.43944416E+04,
                       1.18269265E+01]),
                NASA([455.22, 3000.00],
                     [ 2.49586309E+00,  4.35639890E-02, -2.44887770E-05,
                       6.73363769E-09, -7.23862433E-13, -1.42942585E+04,
                       1.62696907E+01])))

species(name='performic_acid',
        atoms='C:1 H:2 O:3',
        thermo=(NASA([10.00, 590.95],
                     [ 3.92633851E+00,  4.24517168E-03,  6.71106764E-05,
                      -1.36545385E-07,  8.03337864E-11, -3.63028176E+04,
                       8.06485813E+00]),
                NASA([590.95, 3000.00],
                     [ 4.39992934E+00,  1.85411415E-02, -1.36005501E-05,
                       4.62292431E-09, -5.88463603E-13, -3.66643888E+04,
                       3.44353230E+00])))

species(name='disub_c4ether',
        atoms='C:4 H:8 O:2',
        thermo=(NASA([10.00, 413.50],
                     [ 3.78241323E+00,  1.89501763E-02,  8.65302396E-05,
                      -1.80580575E-07,  1.13656264E-10, -4.01332371E+04,
                       1.09982450E+01]),
                NASA([413.50, 3000.00],
                     [ 4.29420885E-01,  5.13851903E-02, -3.11292293E-05,
                       9.11498284E-09, -1.03192718E-12, -3.98559427E+04,
                       2.42134976E+01])))

species(name='aQOOHb',
        atoms='C:4 H:9 O:3',
        thermo=(NASA([10.00, 412.78],
                     [ 3.15498836E+00,  8.55068303E-02, -2.35307993E-04,
                       4.71983261E-07, -3.62709267E-10, -2.75839492E+04,
                       1.52522123E+01]),
                NASA([412.78, 3000.00],
                     [ 4.18099845E+00,  5.26168288E-02, -3.23998410E-05,
                       9.59389339E-09, -1.09464519E-12, -2.74731542E+04,
                       1.35782328E+01])))

species(name='H',
        atoms='H:1',
        thermo=(NASA([10.00, 794.01],
                     [ 2.50000000E+00,  1.99051163E-15, -1.19089508E-17,
                       2.10805655E-20, -1.11017699E-23,  2.54725594E+04,
                      -4.61279342E-01]),
                NASA([794.01, 3000.00],
                     [ 2.50000000E+00,  1.52667235E-14, -1.58445285E-17,
                       6.63088600E-21, -9.62111674E-25,  2.54725594E+04,
                      -4.61279342E-01])))

species(name='aadduct',
        atoms='C:4 H:9 O:3',
        thermo=(NASA([10.00, 449.84],
                     [ 3.06901904E+00,  9.20724491E-02, -2.68085092E-04,
                       5.15249897E-07, -3.68046586E-10, -3.31642477E+04,
                       1.46591735E+01]),
                NASA([449.84, 3000.00],
                     [ 4.11210745E+00,  5.16955724E-02, -2.97401041E-05,
                       8.32758939E-09, -9.08861448E-13, -3.29434068E+04,
                       1.39578825E+01])))

species(name='trisub_epoxy',
        atoms='C:4 H:8 O:2',
        thermo=(NASA([10.00, 209.19],
                     [ 3.75295042E+00,  2.37546930E-02,  1.26610110E-04,
                      -4.78364365E-07,  5.79468168E-10, -4.09612188E+04,
                       1.12739684E+01]),
                NASA([209.19, 3000.00],
                     [ 2.64185254E+00,  4.50006531E-02, -2.57361066E-05,
                       7.15266054E-09, -7.72980731E-13, -4.09147333E+04,
                       1.48960343E+01])))

species(name='ibutenol',
        atoms='C:4 H:8 O:1',
        thermo=(NASA([10.00, 135.97],
                     [ 3.95714996E+00,  5.72646980E-03,  4.63611760E-04,
                      -3.04137514E-06,  6.85019471E-09, -2.55192939E+04,
                       8.21931848E+00]),
                NASA([135.97, 3000.00],
                     [ 3.32467612E+00,  3.69033556E-02, -1.89960416E-05,
                       4.73417677E-09, -4.59705291E-13, -2.55137152E+04,
                       9.58133237E+00])))

species(name='aQOOH[O]',
        atoms='C:4 H:9 O:3',
        thermo=(NASA([10.00, 488.36],
                     [ 3.54559533E+00,  3.89536133E-02,  8.47689703E-05,
                      -2.45147486E-07,  1.76157259E-10, -2.35543859E+04,
                       1.34685910E+01]),
                NASA([488.36, 3000.00],
                     [ 3.94214913E+00,  5.71928314E-02, -3.72516212E-05,
                       1.15209013E-08, -1.35808341E-12, -2.38493469E+04,
                       9.21628964E+00])))

species(name='ipropyl',
        atoms='C:3 H:7',
        thermo=(NASA([10.00, 421.76],
                     [ 3.73943775E+00,  3.10070157E-02, -1.51196908E-04,
                       4.35367329E-07, -3.85565052E-10,  9.49213457E+03,
                       7.79448918E+00]),
                NASA([421.76, 3000.00],
                     [-4.74526725E-01,  3.20862468E-02, -1.67340747E-05,
                       4.21365136E-09, -4.13155573E-13,  1.01934458E+04,
                       2.85865912E+01])))

species(name='aRO2',
        atoms='C:4 H:9 O:3',
        thermo=(NASA([10.00, 670.36],
                     [ 3.45405325E+00,  4.74751311E-02,  9.77507759E-06,
                      -6.31019603E-08,  3.75500067E-11, -3.49736747E+04,
                       1.39284976E+01]),
                NASA([670.36, 3000.00],
                     [ 5.04137652E+00,  5.19952978E-02, -3.16472789E-05,
                       9.22798587E-09, -1.03598915E-12, -3.55008672E+04,
                       4.56056770E+00])))

species(name='O2',
        atoms='O:2',
        thermo=(NASA([10.00, 605.96],
                     [ 3.50743498E+00, -4.43860349E-04,  1.45938058E-06,
                       1.61509333E-09, -2.32050052E-12, -9.24756224E+02,
                       4.72183634E+00]),
                NASA([605.96, 3000.00],
                     [ 2.87462882E+00,  2.17840991E-03, -1.18262921E-06,
                       2.86910493E-10, -2.53297146E-14, -8.19517838E+02,
                       7.69331810E+00])))

species(name='formic_acid',
        atoms='C:1 H:2 O:2',
        thermo=(NASA([10.00, 741.38],
                     [ 4.06855785E+00, -4.74562133E-03,  4.71797900E-05,
                      -6.07490052E-08,  2.51286794E-11, -4.66880837E+04,
                       6.53681035E+00]),
                NASA([741.38, 3000.00],
                     [ 1.13645847E+00,  1.74953124E-02, -1.08112403E-05,
                       3.08075326E-09, -3.34892658E-13, -4.64297918E+04,
                       1.86149484E+01])))

species(name='propene',
        atoms='C:3 H:6',
        thermo=(NASA([10.00, 519.53],
                     [ 3.98723879E+00,  4.72040503E-04,  6.51776229E-05,
                      -9.89891002E-08,  4.91141123E-11, -1.85025382E+02,
                       6.98071210E+00]),
                NASA([519.53, 3000.00],
                     [ 3.79893331E-01,  2.82457690E-02, -1.50108430E-05,
                       3.90894069E-09, -4.00521928E-13,  1.89801965E+02,
                       2.20218922E+01])))

species(name='aQOOHg',
        atoms='C:4 H:9 O:3',
        thermo=(NASA([10.00, 455.48],
                     [ 3.62522127E+00,  2.83222320E-02,  2.08527447E-04,
                      -5.67427418E-07,  4.35169138E-10, -2.52729366E+04,
                       1.26617758E+01]),
                NASA([455.48, 3000.00],
                     [ 5.13914202E+00,  5.96270859E-02, -4.14435328E-05,
                       1.34202375E-08, -1.63474553E-12, -2.58734930E+04,
                       1.46991116E+00])))

species(name='ibut_peroxyacid',
        atoms='C:4 H:8 O:3',
        thermo=(NASA([10.00, 1386.21],
                     [ 3.50995385E+00,  4.78670384E-02, -2.40781384E-05,
                       3.71046938E-09,  3.85442115E-13, -4.73523008E+04,
                       1.22017268E+01]),
                NASA([1386.21, 3000.00],
                     [ 1.24543146E+01,  3.02396862E-02, -1.38577031E-05,
                       3.05328904E-09, -2.63982457E-13, -5.06181841E+04,
                      -3.67061828E+01])))

species(name='HO2',
        atoms='H:1 O:2',
        thermo=(NASA([10.00, 891.11],
                     [ 4.02887004E+00, -1.75769289E-03,  1.08726004E-05,
                      -1.13812972E-08,  3.90113097E-12,  4.95165001E+02,
                       4.69302008E+00]),
                NASA([891.11, 3000.00],
                     [ 3.06571044E+00,  4.28505005E-03, -2.19325920E-06,
                       5.58882699E-10, -5.61246669E-14,  5.98557610E+02,
                       8.84564156E+00])))

species(name='CH3',
        atoms='C:1 H:3',
        thermo=(NASA([10.00, 616.77],
                     [ 3.98929952E+00,  5.45150461E-04,  9.01320092E-06,
                      -1.08320497E-08,  4.38985879E-12,  1.65859883E+04,
                       2.22446886E-01]),
                NASA([616.77, 3000.00],
                     [ 3.35928237E+00,  4.63117126E-03, -9.24365433E-07,
                      -9.02514624E-11,  3.56905106E-14,  1.66637014E+04,
                       2.95743732E+00])))

#-------------------------------------------------------------------------------
# Reaction data
#-------------------------------------------------------------------------------

# Reaction 1
chebyshev_reaction('aQOOH[O] (+ M) <=> aQOOHb (+ M)',
                   Tmin=180.0, Tmax=1500.0,
                   Pmin=(0.01, 'atm'), Pmax=(98.692, 'atm'),
                   coeffs=[[ 5.25800e-01,  1.31600e+00, -5.34800e-01, -3.45400e-03,  1.80200e-02,  1.33600e-03, -5.22400e-05,  3.78800e-05],
                           [ 3.87300e+00,  1.77100e+00,  4.28200e-03, -9.56400e-02, -3.55300e-03,  7.03300e-03, -5.94900e-04, -6.99700e-04],
                           [ 3.66400e-01,  2.28200e-01,  1.12600e-01, -1.83500e-02, -6.79600e-03,  5.10300e-03,  3.03700e-03, -2.18400e-04],
                           [ 1.61900e-02,  6.05900e-02,  5.25200e-02, -2.03900e-02, -1.96200e-02, -1.54300e-04,  2.67000e-03,  7.77100e-04],
                           [ 9.21000e-04,  8.90400e-02,  4.61200e-02,  5.82900e-03, -1.05400e-02, -3.56700e-03,  9.52500e-04,  4.86600e-04],
                           [-8.58600e-03,  2.62100e-02,  1.34100e-02,  8.98300e-03, -2.26800e-03, -3.27800e-03,  3.96400e-05,  5.53800e-04],
                           [-6.25400e-03, -6.65600e-04,  4.46600e-03,  5.50700e-03,  1.33600e-03, -1.94800e-03, -8.40100e-04,  2.70900e-04],
                           [-1.09000e-02, -7.81200e-03,  1.06400e-03,  2.38800e-03,  1.76100e-03, -3.52700e-04, -6.59300e-04,  2.71100e-06],
                           [-1.08700e-02, -1.06900e-02, -1.78500e-03,  1.82400e-03,  9.58100e-04,  1.52600e-04, -4.05400e-04, -1.43100e-04],
                           [-4.78100e-03, -4.05600e-03, -7.75600e-04,  4.66500e-04,  7.81300e-04,  1.09700e-04, -8.19900e-05, -1.33500e-04]])

# Reaction 2
chebyshev_reaction('aQOOHg (+ M) <=> aQOOHb (+ M)',
                   Tmin=180.0, Tmax=1500.0,
                   Pmin=(0.01, 'atm'), Pmax=(98.692, 'atm'),
                   coeffs=[[-4.65500e-01,  5.95600e-01, -6.76200e-01, -7.90100e-03,  2.86700e-02,  2.34200e-03, -1.76300e-03, -2.71000e-04],
                           [ 4.78200e+00,  1.99700e+00, -1.45800e-01, -1.53200e-01,  7.53100e-04,  1.73600e-02,  1.88800e-03, -1.85900e-03],
                           [ 4.88100e-01,  3.43400e-01,  1.71100e-01, -4.31100e-02, -3.42700e-02,  1.47100e-03,  5.87000e-03,  7.97600e-04],
                           [-9.12100e-02,  9.83000e-02,  1.02700e-01, -4.95600e-04, -1.76900e-02, -4.62800e-03,  1.77000e-03,  1.42500e-03],
                           [-4.35000e-02,  8.88300e-02,  4.05300e-02,  7.37300e-03, -7.86100e-03, -3.15700e-03,  2.07800e-04,  4.93700e-04],
                           [-1.57200e-02,  3.73600e-02,  1.70100e-02,  1.02800e-02, -2.79200e-03, -3.02300e-03, -2.51700e-06,  3.49200e-04],
                           [-1.59100e-02,  2.68700e-03,  7.34300e-03,  6.71200e-03,  1.28500e-03, -2.02700e-03, -6.65800e-04,  2.83300e-04],
                           [-1.72200e-02, -7.35000e-03,  2.55300e-03,  2.92200e-03,  2.06200e-03, -4.66000e-04, -7.75900e-04, -1.49200e-05],
                           [-1.18500e-02, -6.87800e-03, -6.41300e-04,  1.67000e-03,  1.24300e-03,  1.94000e-04, -3.83600e-04, -1.59700e-04],
                           [-7.34100e-03, -5.66800e-03, -1.38300e-03,  1.00800e-03,  6.02000e-04,  2.26200e-04, -7.97000e-05, -1.22000e-04]])

# Reaction 3
chebyshev_reaction('aRO2 (+ M) <=> aQOOHb (+ M)',
                   Tmin=180.0, Tmax=1500.0,
                   Pmin=(0.01, 'atm'), Pmax=(98.692, 'atm'),
                   coeffs=[[-7.86200e+00,  1.12600e+00, -2.95400e-01,  1.64300e-05,  1.00200e-02,  1.32600e-03, -5.94600e-04, -1.29800e-04],
                           [ 1.21900e+01,  1.50100e+00, -2.89300e-01, -5.25200e-02,  1.66600e-02,  4.09200e-03, -5.70500e-04, -2.98600e-04],
                           [ 7.66900e-01,  4.87500e-01,  3.32500e-02, -5.59700e-02, -8.46700e-03,  6.49400e-03,  1.43700e-03, -5.01900e-04],
                           [-1.83200e-01,  8.10600e-02,  9.62200e-02, -2.34900e-02, -1.67100e-02,  2.56500e-03,  2.50500e-03, -1.01400e-04],
                           [-1.95000e-01,  4.91600e-02,  5.17500e-02, -6.51700e-03, -9.16200e-03, -7.79600e-04,  1.37800e-03,  3.45500e-04],
                           [-7.17100e-02,  4.91000e-02,  1.66100e-02,  1.65200e-03, -3.82600e-03, -1.57300e-03,  4.16700e-04,  3.50100e-04],
                           [-1.57400e-02,  1.64600e-02,  3.44500e-03,  6.89600e-03, -1.77700e-03, -1.78800e-03,  9.61100e-05,  2.89200e-04],
                           [-3.16800e-03, -8.87600e-03,  1.49500e-03,  5.98100e-03, -6.29500e-05, -1.35400e-03, -2.21600e-04,  2.07700e-04],
                           [ 1.21400e-03, -1.25300e-02,  1.67400e-03,  2.34700e-03,  9.04500e-04, -4.93100e-04, -3.76500e-04,  4.30400e-05],
                           [ 3.70600e-03, -7.10500e-03,  4.87400e-04,  4.96000e-04,  9.06300e-04, -2.55700e-05, -2.52800e-04, -5.57900e-05]])

# Reaction 4
chebyshev_reaction('aadduct (+ M) <=> aQOOHb (+ M)',
                   Tmin=180.0, Tmax=1500.0,
                   Pmin=(0.01, 'atm'), Pmax=(98.692, 'atm'),
                   coeffs=[[-9.90700e+00,  9.40300e-01, -3.33800e-01, -2.12700e-02,  8.57800e-03,  1.08700e-03, -5.63600e-04, -1.00700e-04],
                           [ 1.02800e+01,  1.84100e+00, -2.23100e-01, -3.34500e-02,  1.46800e-02,  4.11600e-03, -4.97300e-04, -3.50500e-04],
                           [ 6.92700e-01,  3.94600e-01,  1.80800e-02, -5.37500e-02, -7.72500e-03,  6.47500e-03,  1.71400e-03, -4.07700e-04],
                           [-3.53800e-02,  7.31800e-02,  1.01300e-01, -2.84400e-02, -1.81900e-02,  2.33500e-03,  2.56300e-03,  7.09000e-06],
                           [-4.45700e-02,  5.96600e-02,  6.02800e-02, -3.81400e-03, -1.01000e-02, -1.47200e-03,  1.33700e-03,  4.04800e-04],
                           [-4.47800e-03,  4.71900e-02,  1.49700e-02,  4.57800e-03, -3.06800e-03, -2.03000e-03,  2.84200e-04,  3.92000e-04],
                           [-9.68100e-03,  1.40200e-02,  2.00900e-03,  7.39500e-03, -1.29500e-03, -1.80300e-03, -2.84900e-06,  2.84500e-04],
                           [-7.01600e-03, -9.81700e-03,  1.46800e-03,  5.99200e-03, -1.04300e-04, -1.31500e-03, -2.67700e-04,  1.91000e-04],
                           [ 4.17900e-03, -1.56500e-02,  8.75700e-04,  2.22600e-03,  1.09900e-03, -4.67100e-04, -4.33400e-04,  3.03200e-05],
                           [-1.94400e-02, -3.49600e-03,  1.55000e-03,  5.55800e-04,  1.17900e-03,  2.15900e-05, -2.91700e-04, -7.57100e-05]])

# Reaction 5
chebyshev_reaction('O2 + aR (+ M) <=> aQOOHb (+ M)',
                   Tmin=180.0, Tmax=1500.0,
                   Pmin=(0.01, 'atm'), Pmax=(98.692, 'atm'),
                   coeffs=[[ 6.24500e+00,  3.33200e-01, -5.59700e-01, -3.59300e-02,  2.78900e-02,  4.26800e-03, -1.11500e-03, -6.04400e-04],
                           [ 7.39700e-01,  8.15300e-01,  9.80000e-02, -9.00900e-02, -2.12200e-02,  9.34400e-03,  2.63000e-03, -2.85900e-04],
                           [ 4.00900e-01,  2.21400e-01,  8.83400e-02, -8.47200e-03, -1.94100e-02, -2.00200e-03,  2.54000e-03,  3.68500e-04],
                           [ 1.29500e-01,  1.11600e-01,  5.87900e-02,  5.72000e-03, -1.21400e-02, -4.70100e-03,  1.69100e-03,  1.10400e-03],
                           [ 4.09600e-02,  6.42500e-02,  3.40700e-02,  7.21800e-03, -4.91900e-03, -4.04800e-03, -4.68200e-05,  9.95500e-04],
                           [ 4.73100e-03,  2.39600e-02,  1.47200e-02,  5.95400e-03, -4.76700e-05, -1.99200e-03, -9.43800e-04,  2.54800e-04],
                           [-6.82100e-03,  3.00900e-03,  4.00600e-03,  3.59000e-03,  1.50700e-03, -4.04400e-04, -7.71900e-04, -1.98800e-04],
                           [-9.90100e-03, -6.97500e-03, -5.34000e-04,  2.25100e-03,  1.51400e-03,  1.22700e-04, -4.10400e-04, -2.33300e-04],
                           [-8.06100e-03, -8.03900e-03, -1.85000e-03,  1.22000e-03,  1.09300e-03,  2.21000e-04, -1.69400e-04, -1.45300e-04],
                           [-5.01000e-03, -5.78800e-03, -1.71900e-03,  4.85900e-04,  6.29900e-04,  1.92700e-04, -3.84500e-05, -6.52500e-05]])
#  aQOOHb(+M) <=> aQOOH[O](+M)                         1.000e+00 0.000     0.000
#      TCHEB/ 180.000   1500.000 /
#      PCHEB/ 0.010     98.692   /
#      CHEB/ 10 8/
#      CHEB/ -6.412e+00   1.316e+00    -5.348e-01   -3.454e-03   1.802e-02   /
#      CHEB/ 1.336e-03    -5.224e-05   3.788e-05    7.973e+00    1.771e+00   /
#      CHEB/ 4.282e-03    -9.564e-02   -3.553e-03   7.033e-03    -5.949e-04  /
#      CHEB/ -6.997e-04   4.443e-01    2.282e-01    1.126e-01    -1.835e-02  /
#      CHEB/ -6.796e-03   5.103e-03    3.037e-03    -2.184e-04   6.219e-02   /
#      CHEB/ 6.059e-02    5.252e-02    -2.039e-02   -1.962e-02   -1.543e-04  /
#      CHEB/ 2.670e-03    7.771e-04    1.630e-02    8.904e-02    4.612e-02   /
#      CHEB/ 5.829e-03    -1.054e-02   -3.567e-03   9.525e-04    4.866e-04   /
#      CHEB/ -3.815e-03   2.621e-02    1.341e-02    8.983e-03    -2.268e-03  /
#      CHEB/ -3.278e-03   3.964e-05    5.538e-04    -4.443e-03   -6.656e-04  /
#      CHEB/ 4.466e-03    5.507e-03    1.336e-03    -1.948e-03   -8.401e-04  /
#      CHEB/ 2.709e-04    -1.018e-02   -7.812e-03   1.064e-03    2.388e-03   /
#      CHEB/ 1.761e-03    -3.527e-04   -6.593e-04   2.711e-06    -1.067e-02  /
#      CHEB/ -1.069e-02   -1.785e-03   1.824e-03    9.581e-04    1.526e-04   /
#      CHEB/ -4.054e-04   -1.431e-04   -4.774e-03   -4.056e-03   -7.756e-04  /
#      CHEB/ 4.665e-04    7.813e-04    1.097e-04    -8.199e-05   -1.335e-04  /

# Reaction 6
chebyshev_reaction('aQOOHg (+ M) <=> aQOOH[O] (+ M)',
                   Tmin=180.0, Tmax=1500.0,
                   Pmin=(0.01, 'atm'), Pmax=(98.692, 'atm'),
                   coeffs=[[ 2.06900e+00,  1.76100e+00, -3.67100e-01, -5.48700e-03,  2.66800e-02, -5.66000e-04, -2.03700e-03,  1.14500e-04],
                           [ 2.42900e+00,  1.44800e+00, -6.38200e-02, -7.49300e-02,  4.28400e-03,  1.32800e-02,  1.45700e-04, -1.91500e-03],
                           [ 8.96000e-02,  2.46700e-01,  4.61000e-02, -1.02600e-02, -2.21000e-02,  3.69900e-03,  5.50200e-03, -7.62200e-06],
                           [ 5.28300e-02, -7.18300e-02,  4.21600e-02, -1.33200e-02, -1.51900e-02, -4.08500e-04,  2.98300e-03,  1.38800e-03],
                           [ 1.16100e-03,  9.49300e-04,  2.08500e-02, -1.71800e-02, -5.47800e-03, -2.35800e-03,  3.11200e-04,  1.17400e-03],
                           [-2.88500e-02,  5.41900e-02,  6.52700e-03, -2.55200e-03, -1.79700e-03, -3.22100e-03, -3.90800e-04,  4.00600e-04],
                           [-2.50100e-02,  3.52600e-02,  1.95800e-03,  8.55900e-03, -1.53300e-03, -2.02800e-03, -4.07400e-04, -1.01700e-04],
                           [-9.67400e-03,  1.40100e-03,  5.70600e-03,  7.37400e-03, -1.06300e-03, -4.72800e-04, -4.87100e-04, -1.55900e-04],
                           [-3.33200e-03, -9.38500e-03,  7.01700e-03,  2.07400e-03,  7.07900e-04, -9.75400e-05, -5.31500e-04, -1.71000e-05],
                           [-2.77500e-03, -6.46500e-03,  3.76700e-03,  2.60400e-04,  1.49800e-03, -2.16500e-04, -3.40600e-04,  4.40600e-06]])

# Reaction 7
chebyshev_reaction('aRO2 (+ M) <=> aQOOH[O] (+ M)',
                   Tmin=180.0, Tmax=1500.0,
                   Pmin=(0.01, 'atm'), Pmax=(98.692, 'atm'),
                   coeffs=[[-7.14300e+00,  2.10700e+00, -4.16200e-01,  2.47900e-02,  1.25900e-02, -4.73500e-03,  3.27100e-04,  5.40200e-04],
                           [ 1.27200e+01,  1.15600e+00,  1.14300e-01, -6.29500e-02, -2.68100e-03,  6.25800e-03, -1.13100e-03, -5.05600e-04],
                           [-6.23400e-01,  1.90700e-01,  6.95300e-02, -4.99200e-03, -3.55800e-03,  2.99700e-03,  4.35300e-04, -6.49900e-04],
                           [-2.25900e-01,  7.00500e-02, -2.13000e-03, -1.15600e-02,  6.13100e-04,  2.36400e-03,  6.88800e-04, -1.37900e-04],
                           [-8.27500e-02,  5.77900e-02, -1.84300e-03, -1.21100e-02, -3.27000e-03,  1.09400e-03,  8.74800e-04,  1.17000e-04],
                           [-3.04000e-02,  3.08200e-02,  9.82700e-03, -4.15000e-03, -4.65900e-03, -2.77400e-04,  6.72700e-04,  1.43100e-04],
                           [-1.23400e-02,  8.15700e-03,  1.21500e-02,  9.67600e-04, -2.91100e-03, -8.74400e-04,  2.97200e-04,  1.55400e-04],
                           [-4.48300e-03, -3.03300e-03,  7.84800e-03,  2.52400e-03, -1.00800e-03, -8.84100e-04,  7.86700e-05,  1.11200e-04],
                           [ 3.18500e-03, -8.98600e-03,  1.57600e-03,  3.83300e-03, -3.84400e-04, -5.21100e-04, -1.24900e-04,  9.03500e-05],
                           [ 1.71400e-03, -6.24600e-03,  9.17600e-04,  1.24600e-03,  6.80100e-04, -4.47000e-04, -1.25400e-04,  5.64700e-05]])

# Reaction 8
chebyshev_reaction('aadduct (+ M) <=> aQOOH[O] (+ M)',
                   Tmin=180.0, Tmax=1500.0,
                   Pmin=(0.01, 'atm'), Pmax=(98.692, 'atm'),
                   coeffs=[[-9.27800e+00,  2.11000e+00, -4.21300e-01,  1.92600e-02,  1.02300e-02, -5.33600e-03,  1.58100e-04,  4.81100e-04],
                           [ 1.08900e+01,  1.18500e+00,  1.21600e-01, -6.27700e-02, -2.45700e-03,  6.70500e-03, -9.47000e-04, -4.76000e-04],
                           [-7.58900e-01,  2.08900e-01,  7.80400e-02, -2.57500e-03, -2.95600e-03,  3.36000e-03,  6.53700e-04, -5.94800e-04],
                           [-5.61600e-02,  6.97700e-02, -1.63100e-04, -1.14800e-02, -2.81600e-04,  2.03200e-03,  7.63200e-04, -8.48100e-05],
                           [ 7.95800e-02,  5.26200e-02, -1.04300e-03, -1.18600e-02, -4.13000e-03,  6.68000e-04,  8.97600e-04,  1.71100e-04],
                           [ 4.07100e-02,  2.77400e-02,  1.12900e-02, -3.12000e-03, -4.89300e-03, -5.54300e-04,  6.55500e-04,  1.82000e-04],
                           [-6.94000e-03,  7.33200e-03,  1.33800e-02,  2.08500e-03, -2.71000e-03, -1.01300e-03,  2.44900e-04,  1.76000e-04],
                           [-9.62700e-03, -3.84300e-03,  7.66900e-03,  2.96800e-03, -7.82400e-04, -9.73600e-04,  4.07400e-06,  1.15600e-04],
                           [ 8.20700e-03, -9.94100e-03,  5.88400e-04,  3.78700e-03, -2.32600e-04, -5.68600e-04, -1.95700e-04,  8.20800e-05],
                           [-2.49300e-02, -5.66400e-03,  8.37300e-04,  1.48200e-03,  9.76100e-04, -3.84500e-04, -1.56100e-04,  4.54400e-05]])

# Reaction 9
chebyshev_reaction('O2 + aR (+ M) <=> aQOOH[O] (+ M)',
                   Tmin=180.0, Tmax=1500.0,
                   Pmin=(0.01, 'atm'), Pmax=(98.692, 'atm'),
                   coeffs=[[ 7.06700e+00,  1.29300e+00, -3.23900e-01, -6.63200e-02,  9.99000e-03,  6.60400e-03, -1.61600e-03, -1.45500e-03],
                           [-5.26100e-02,  2.97200e-01,  1.08200e-01,  3.13900e-03, -1.01900e-02,  9.78500e-04,  3.44000e-03,  5.83200e-04],
                           [ 2.08800e-01,  4.80300e-02,  2.70900e-02,  5.53500e-03, -4.40300e-03, -3.44100e-03, -3.51800e-05,  1.00700e-03],
                           [ 1.12800e-01,  7.58200e-02,  2.54600e-02, -2.52700e-03, -5.59700e-03, -1.51200e-03,  3.52500e-04,  2.77800e-04],
                           [ 5.18400e-02,  6.27100e-02,  2.24500e-02, -1.13500e-03, -4.47500e-03, -1.21000e-03,  4.29300e-04,  2.80200e-04],
                           [ 1.27000e-02,  2.68000e-02,  1.23300e-02,  1.88000e-03, -1.45800e-03, -9.98000e-04, -1.09300e-04,  1.57200e-04],
                           [-1.69200e-03,  4.40800e-03,  4.35500e-03,  2.47400e-03,  3.49700e-04, -5.00800e-04, -3.23900e-04, -6.57200e-06],
                           [-7.32300e-03, -5.80800e-03,  5.30300e-04,  2.46600e-03,  1.02600e-03, -2.43500e-04, -3.47500e-04, -6.47800e-05],
                           [-1.14100e-02, -9.19700e-03, -2.15000e-03,  1.17900e-03,  8.80300e-04, -2.45800e-05, -2.27800e-04, -6.77800e-05],
                           [-2.60900e-03, -4.90500e-03, -9.82900e-04,  9.26200e-04,  7.34300e-04,  1.00800e-04, -1.29800e-04, -7.48100e-05]])
#  aQOOHb(+M) <=> aQOOHg(+M)                           1.000e+00 0.000     0.000
#      TCHEB/ 180.000   1500.000 /
#      PCHEB/ 0.010     98.692   /
#      CHEB/ 10 8/
#      CHEB/ -5.277e+00   5.956e-01    -6.762e-01   -7.901e-03   2.867e-02   /
#      CHEB/ 2.342e-03    -1.763e-03   -2.710e-04   7.361e+00    1.997e+00   /
#      CHEB/ -1.458e-01   -1.532e-01   7.531e-04    1.736e-02    1.888e-03   /
#      CHEB/ -1.859e-03   7.113e-01    3.434e-01    1.711e-01    -4.311e-02  /
#      CHEB/ -3.427e-02   1.471e-03    5.870e-03    7.976e-04    2.933e-03   /
#      CHEB/ 9.830e-02    1.027e-01    -4.956e-04   -1.769e-02   -4.628e-03  /
#      CHEB/ 1.770e-03    1.425e-03    -1.530e-02   8.883e-02    4.053e-02   /
#      CHEB/ 7.373e-03    -7.861e-03   -3.157e-03   2.078e-04    4.937e-04   /
#      CHEB/ -7.848e-03   3.736e-02    1.701e-02    1.028e-02    -2.792e-03  /
#      CHEB/ -3.023e-03   -2.517e-06   3.492e-04    -1.340e-02   2.687e-03   /
#      CHEB/ 7.343e-03    6.712e-03    1.285e-03    -2.027e-03   -6.658e-04  /
#      CHEB/ 2.833e-04    -1.649e-02   -7.350e-03   2.553e-03    2.922e-03   /
#      CHEB/ 2.062e-03    -4.660e-04   -7.759e-04   -1.492e-05   -1.183e-02  /
#      CHEB/ -6.878e-03   -6.413e-04   1.670e-03    1.243e-03    1.940e-04   /
#      CHEB/ -3.836e-04   -1.597e-04   -7.482e-03   -5.668e-03   -1.383e-03  /
#      CHEB/ 1.008e-03    6.020e-04    2.262e-04    -7.970e-05   -1.220e-04  /
#  aQOOH[O](+M) <=> aQOOHg(+M)                         1.000e+00 0.000     0.000
#      TCHEB/ 180.000   1500.000 /
#      PCHEB/ 0.010     98.692   /
#      CHEB/ 10 8/
#      CHEB/ 4.195e+00    1.761e+00    -3.671e-01   -5.487e-03   2.668e-02   /
#      CHEB/ -5.660e-04   -2.037e-03   1.145e-04    9.084e-01    1.448e+00   /
#      CHEB/ -6.382e-02   -7.493e-02   4.284e-03    1.328e-02    1.457e-04   /
#      CHEB/ -1.915e-03   2.349e-01    2.467e-01    4.610e-02    -1.026e-02  /
#      CHEB/ -2.210e-02   3.699e-03    5.502e-03    -7.622e-06   1.010e-01   /
#      CHEB/ -7.183e-02   4.216e-02    -1.332e-02   -1.519e-02   -4.085e-04  /
#      CHEB/ 2.983e-03    1.388e-03    1.399e-02    9.493e-04    2.085e-02   /
#      CHEB/ -1.718e-02   -5.478e-03   -2.358e-03   3.112e-04    1.174e-03   /