units(length='cm', time='s', quantity='mol', act_energy='kcal/mol')

ideal_gas(name='gas',
          elements="H D T C Ci O Oi N Ne Ar He Si S F Cl Br I X",
          species="""propene3ol       OH               disub_c4ether
                     H2O              disub_epoxy      gQOOHa
                     propene1ol       gQOOHb           ipropylOOH
                     galdoxy          galkene          CH2O
                     O2               gRO2             gQOOHg
                     gR               galdol           monosub_c4ether
                     HO2              gQOOH[O]""",
          reactions='all',
          initial_state=state(temperature=300.0, pressure=OneAtm))

#-------------------------------------------------------------------------------
# Element data
#-------------------------------------------------------------------------------

element(symbol='Ci', atomic_mass=13.003)
element(symbol='D', atomic_mass=2.014)
element(symbol='Oi', atomic_mass=18.0)
element(symbol='T', atomic_mass=3.016)
element(symbol='X', atomic_mass=195.083)
#-------------------------------------------------------------------------------
# Species data
#-------------------------------------------------------------------------------

species(name='propene3ol',
        atoms='C:3 H:6 O:1',
        thermo=(NASA([10.00, 444.81],
                     [ 3.92769709E+00,  4.89977303E-03,  1.13094874E-04,
                      -2.59008187E-07,  1.86205760E-10, -1.52572825E+04,
                       9.90805416E+00]),
                NASA([444.81, 3000.00],
                     [ 2.61720343E+00,  3.01777872E-02, -1.76511625E-05,
                       5.14864061E-09, -5.91153761E-13, -1.52741829E+04,
                       1.36683107E+01])))

species(name='OH',
        atoms='H:1 O:1',
        thermo=(NASA([10.00, 984.14],
                     [ 3.49686242E+00,  1.83973160E-04, -9.97634499E-07,
                       1.56942783E-09, -6.10128175E-13,  3.41673934E+03,
                       1.48093120E+00]),
                NASA([984.14, 3000.00],
                     [ 3.45221464E+00, -2.95124034E-04,  7.39418622E-07,
                      -2.89309866E-10,  3.53041498E-14,  3.45751599E+03,
                       1.85813897E+00])))

species(name='disub_c4ether',
        atoms='C:4 H:8 O:2',
        thermo=(NASA([10.00, 413.50],
                     [ 3.78241323E+00,  1.89501763E-02,  8.65302396E-05,
                      -1.80580575E-07,  1.13656264E-10, -4.00535496E+04,
                       1.09982450E+01]),
                NASA([413.50, 3000.00],
                     [ 4.29420885E-01,  5.13851903E-02, -3.11292293E-05,
                       9.11498284E-09, -1.03192718E-12, -3.97762553E+04,
                       2.42134976E+01])))

species(name='H2O',
        atoms='H:2 O:1',
        thermo=(NASA([10.00, 773.84],
                     [ 4.00473541E+00, -2.39729134E-04,  8.11862955E-07,
                       1.47891862E-09, -1.19783539E-12, -3.03533807E+04,
                      -9.96254147E-02]),
                NASA([773.84, 3000.00],
                     [ 3.52133374E+00,  1.05377009E-03,  6.40722099E-07,
                      -3.86240235E-10,  5.49243294E-14, -3.02424794E+04,
                       2.34173094E+00])))

species(name='disub_epoxy',
        atoms='C:4 H:8 O:2',
        thermo=(NASA([10.00, 549.41],
                     [ 3.89863211E+00,  5.97532637E-03,  1.66685676E-04,
                      -3.10743768E-07,  1.78330192E-10, -3.74021660E+04,
                       1.13847308E+01]),
                NASA([549.41, 3000.00],
                     [-6.40277648E-01,  6.05960003E-02, -4.13427220E-05,
                       1.31555461E-08, -1.57685017E-12, -3.72290492E+04,
                       2.76005436E+01])))

species(name='gQOOHa',
        atoms='C:4 H:9 O:3',
        thermo=(NASA([10.00, 160.74],
                     [ 3.80808147E+00,  2.31043884E-02,  5.26945984E-04,
                      -3.11500696E-06,  6.03881958E-09, -2.47106377E+04,
                       1.17645316E+01]),
                NASA([160.74, 3000.00],
                     [ 2.90630300E+00,  6.50241173E-02, -4.60073244E-05,
                       1.51330930E-08, -1.87074267E-12, -2.47068131E+04,
                       1.36838819E+01])))

species(name='propene1ol',
        atoms='C:3 H:6 O:1',
        thermo=(NASA([10.00, 459.42],
                     [ 3.91245344E+00,  5.85800161E-03,  1.15412006E-04,
                      -2.68014417E-07,  1.91800131E-10, -1.91559310E+04,
                       8.14807684E+00]),
                NASA([459.42, 3000.00],
                     [ 3.14049093E+00,  2.95550898E-02, -1.73843684E-05,
                       5.11506211E-09, -5.92966137E-13, -1.92641535E+04,
                       9.32215170E+00])))

species(name='gQOOHb',
        atoms='C:4 H:9 O:3',
        thermo=(NASA([10.00, 1018.67],
                     [ 3.99028351E+00,  4.29665712E-02,  2.28338778E-05,
                      -5.67914439E-08,  2.29383258E-11, -2.48240357E+04,
                       1.20326731E+01]),
                NASA([1018.67, 3000.00],
                     [ 1.38304153E+01,  3.88527019E-02, -2.19473905E-05,
                       5.78719895E-09, -5.85097740E-13, -2.86201204E+04,
                      -4.44147388E+01])))

species(name='ipropylOOH',
        atoms='C:3 H:7 O:2',
        thermo=(NASA([10.00, 405.01],
                     [ 3.30075623E+00,  7.58672756E-02, -3.35754269E-04,
                       8.05972164E-07, -6.68864582E-10, -8.73315533E+02,
                       1.43372849E+01]),
                NASA([405.01, 3000.00],
                     [ 2.51742509E+00,  3.72760950E-02, -2.12450220E-05,
                       5.83593926E-09, -6.22110649E-13, -4.29907927E+02,
                       2.20991392E+01])))

species(name='galdoxy',
        atoms='C:4 H:7 O:2',
        thermo=(NASA([10.00, 209.62],
                     [ 3.82641108E+00,  1.84758886E-02,  3.43073800E-04,
                      -1.82817005E-06,  2.98516720E-09, -1.80790673E+04,
                       1.17972706E+01]),
                NASA([209.62, 3000.00],
                     [ 4.22049016E+00,  4.03370149E-02, -2.36129482E-05,
                       6.72979114E-09, -7.47862493E-13, -1.81601370E+04,
                       8.97211724E+00])))

species(name='galkene',
        atoms='C:4 H:8 O:1',
        thermo=(NASA([10.00, 383.47],
                     [ 3.84035604E+00,  1.20378740E-02,  1.87486319E-04,
                      -5.44759148E-07,  4.80711015E-10, -2.11623765E+04,
                       1.02570291E+01]),
                NASA([383.47, 3000.00],
                     [ 4.00413385E+00,  3.79025144E-02, -2.15435710E-05,
                       6.15213311E-09, -6.97446345E-13, -2.13776658E+04,
                       6.98052628E+00])))

species(name='CH2O',
        atoms='C:1 H:2 O:1',
        thermo=(NASA([10.00, 601.31],
                     [ 4.03190845E+00, -1.93233367E-03,  8.89743345E-06,
                       2.98105926E-09, -7.90813886E-12, -1.42276270E+04,
                       3.47574660E+00]),
                NASA([601.31, 3000.00],
                     [ 1.40134195E+00,  9.48858016E-03, -4.43088317E-06,
                       9.48452194E-10, -7.43790219E-14, -1.38013869E+04,
                       1.57423780E+01])))

species(name='O2',
        atoms='O:2',
        thermo=(NASA([10.00, 605.96],
                     [ 3.50743498E+00, -4.43860349E-04,  1.45938058E-06,
                       1.61509333E-09, -2.32050052E-12, -9.24756224E+02,
                       4.72183634E+00]),
                NASA([605.96, 3000.00],
                     [ 2.87462882E+00,  2.17840991E-03, -1.18262921E-06,
                       2.86910493E-10, -2.53297146E-14, -8.19517838E+02,
                       7.69331810E+00])))

species(name='gRO2',
        atoms='C:4 H:9 O:3',
        thermo=(NASA([10.00, 177.33],
                     [ 3.70632176E+00,  3.49733664E-02,  4.64036392E-04,
                      -3.18637835E-06,  6.38178607E-09, -2.82409329E+04,
                       1.24459269E+01]),
                NASA([177.33, 3000.00],
                     [ 4.82062697E+00,  5.17179689E-02, -3.18386818E-05,
                       9.52247045E-09, -1.10180288E-12, -2.83463035E+04,
                       7.14082953E+00])))

species(name='gQOOHg',
        atoms='C:4 H:9 O:3',
        thermo=(NASA([10.00, 475.03],
                     [ 3.42273720E+00,  4.98344215E-02,  6.47820920E-05,
                      -2.49842966E-07,  1.98636537E-10, -1.97264726E+04,
                       1.41578583E+01]),
                NASA([475.03, 3000.00],
                     [ 5.94049074E+00,  5.53778585E-02, -3.71708255E-05,
                       1.17540477E-08, -1.40812095E-12, -2.02674269E+04,
                       7.09201218E-01])))

species(name='gR',
        atoms='C:4 H:9 O:1',
        thermo=(NASA([10.00, 638.24],
                     [ 3.37074633E+00,  5.17529751E-02, -6.54872940E-05,
                       6.88084237E-08, -3.21569794E-11, -9.58078518E+03,
                       1.14339669E+01]),
                NASA([638.24, 3000.00],
                     [ 3.99410860E+00,  4.06314915E-02, -2.23932510E-05,
                       6.08356263E-09, -6.49884708E-13, -9.51341047E+03,
                       9.85769960E+00])))

species(name='galdol',
        atoms='C:4 H:8 O:2',
        thermo=(NASA([10.00, 506.68],
                     [ 3.85380874E+00,  9.21272695E-03,  1.86712348E-04,
                      -3.96417049E-07,  2.55528268E-10, -4.85379944E+04,
                       1.24312743E+01]),
                NASA([506.68, 3000.00],
                     [ 1.49710213E+00,  5.65979142E-02, -3.87709084E-05,
                       1.23682052E-08, -1.48287964E-12, -4.86686038E+04,
                       1.85531759E+01])))

species(name='monosub_c4ether',
        atoms='C:4 H:8 O:2',
        thermo=(NASA([10.00, 380.36],
                     [ 3.47743996E+00,  6.08051311E-02, -2.78518945E-04,
                       8.23182713E-07, -7.87158031E-10, -3.05149223E+04,
                       1.06415154E+01]),
                NASA([380.36, 3000.00],
                     [-1.09346901E+00,  5.35985968E-02, -3.21081420E-05,
                       9.20818293E-09, -1.01830294E-12, -2.97673622E+04,
                       3.35312368E+01])))

species(name='HO2',
        atoms='H:1 O:2',
        thermo=(NASA([10.00, 891.11],
                     [ 4.02887004E+00, -1.75769289E-03,  1.08726004E-05,
                      -1.13812972E-08,  3.90113097E-12,  4.95165001E+02,
                       4.69302008E+00]),
                NASA([891.11, 3000.00],
                     [ 3.06571044E+00,  4.28505005E-03, -2.19325920E-06,
                       5.58882699E-10, -5.61246669E-14,  5.98557610E+02,
                       8.84564156E+00])))

species(name='gQOOH[O]',
        atoms='C:4 H:9 O:3',
        thermo=(NASA([10.00, 535.23],
                     [ 3.83107445E+00,  1.02302002E-02,  2.29377261E-04,
                      -4.59095575E-07,  2.77765018E-10, -1.75907284E+04,
                       1.41034859E+01]),
                NASA([535.23, 3000.00],
                     [-4.19283096E-01,  7.69784620E-02, -5.57279000E-05,
                       1.81378295E-08, -2.18295635E-12, -1.76368418E+04,
                       2.72711816E+01])))

#-------------------------------------------------------------------------------
# Reaction data
#-------------------------------------------------------------------------------

# Reaction 1
chebyshev_reaction('gQOOH[O] (+ M) <=> gRO2 (+ M)',
                   Tmin=180.0, Tmax=1500.0,
                   Pmin=(0.01, 'atm'), Pmax=(98.692, 'atm'),
                   coeffs=[[ 5.73400e+00,  1.75800e+00, -1.41400e-01, -2.76900e-02, -8.47100e-04,  1.65700e-03,  8.70100e-04,  1.55000e-04],
                           [-5.48300e+00,  5.25600e-01,  1.22800e-01,  1.66700e-02, -2.98600e-03, -8.97500e-04, -6.89900e-04, -1.83900e-04],
                           [-3.43800e+00,  4.29800e-02, -2.04100e-02,  7.63600e-03,  6.79600e-03,  2.21700e-03, -5.11000e-05, -3.96500e-04],
                           [-1.82100e+00,  7.78500e-02,  8.81400e-03, -5.74700e-04, -1.11400e-03, -3.59700e-04,  8.31000e-05,  9.85400e-05],
                           [-9.44400e-01,  1.02400e-01,  5.46000e-02,  1.19500e-02, -3.23000e-04, -1.93800e-03, -8.33000e-04, -9.22600e-05],
                           [-5.52400e-01,  5.18100e-02,  5.42500e-02,  1.26300e-02,  1.05300e-03, -2.60800e-04, -1.97900e-04, -1.99400e-04],
                           [-3.11600e-01, -3.95300e-02,  2.39000e-02,  8.22200e-03,  1.37100e-03,  2.73000e-04,  1.36600e-04, -2.19000e-06],
                           [-1.71300e-01, -7.21200e-02,  5.69800e-03,  4.65700e-03,  4.89400e-04,  2.56100e-04,  6.26800e-05, -8.11800e-05],
                           [-8.67600e-02, -7.11500e-02, -3.47200e-03,  5.97300e-03,  1.81800e-03,  3.09400e-04, -2.21200e-04, -2.07600e-04],
                           [-2.78700e-02, -6.64800e-02, -1.34300e-02,  6.79000e-03,  3.73600e-03,  6.72700e-04, -2.73400e-04, -2.22300e-04]])

# Reaction 2
chebyshev_reaction('gQOOHa (+ M) <=> gRO2 (+ M)',
                   Tmin=180.0, Tmax=1500.0,
                   Pmin=(0.01, 'atm'), Pmax=(98.692, 'atm'),
                   coeffs=[[ 1.34400e+00,  8.50600e-01,  2.34300e-02, -2.33300e-03, -1.80400e-03,  1.06800e-04, -2.60400e-04,  3.60300e-05],
                           [-2.92400e+00,  1.23400e+00,  8.45500e-02, -6.85900e-03, -1.60900e-03, -6.87700e-04, -2.01300e-04,  1.06800e-04],
                           [-3.87300e+00,  3.32900e-01,  1.10800e-01,  1.84700e-03, -1.12800e-03, -1.21900e-03,  6.78700e-05,  1.99100e-04],
                           [-1.80700e+00, -1.98900e-01,  5.61900e-02,  1.62900e-02, -1.34800e-03, -1.09700e-03,  1.02700e-04,  1.17000e-04],
                           [-6.67800e-01, -1.59700e-01, -9.91900e-03,  1.61100e-02, -9.21000e-05, -7.09300e-04, -6.51200e-05, -8.42600e-05],
                           [-3.04000e-01,  4.12500e-02, -9.09300e-04,  3.87000e-03,  3.50100e-04, -2.83200e-04, -1.91000e-04, -1.59800e-04],
                           [-2.67400e-01,  4.91700e-02,  4.74500e-02,  3.11700e-03, -1.36800e-03, -2.39000e-04, -4.79700e-05, -5.47900e-05],
                           [-1.91800e-01, -8.46500e-02,  4.59500e-02,  1.67900e-02, -9.61000e-04, -6.48500e-04,  1.24200e-04,  1.73700e-05],
                           [-1.03700e-01, -1.47900e-01, -9.43700e-03,  2.18000e-02,  3.81100e-03, -5.64300e-04, -1.29900e-04, -1.05400e-04],
                           [-2.24200e-02, -8.98400e-02, -4.67800e-02,  7.99600e-03,  7.42700e-03,  4.19500e-04, -6.45200e-04, -2.65100e-04]])

# Reaction 3
chebyshev_reaction('gQOOHg (+ M) <=> gRO2 (+ M)',
                   Tmin=180.0, Tmax=1500.0,
                   Pmin=(0.01, 'atm'), Pmax=(98.692, 'atm'),
                   coeffs=[[ 4.58000e+00,  1.71200e+00, -1.32200e-01, -1.29700e-02,  5.81500e-03,  1.36900e-03, -9.06900e-04, -1.81100e-04],
                           [-5.58500e+00,  8.21200e-01,  2.02100e-01,  1.83800e-02, -1.52700e-02, -4.12800e-03,  1.43600e-03,  7.28100e-04],
                           [-3.21700e+00, -1.56000e-02, -6.69000e-03,  3.06400e-02,  1.02600e-02, -2.55400e-03, -2.47300e-03,  1.15500e-04],
                           [-1.55000e+00,  8.40100e-02, -2.13600e-02, -1.59100e-02, -2.29100e-03,  2.64200e-03,  1.11000e-03, -2.92900e-04],
                           [-7.49700e-01,  9.09700e-02,  3.97000e-02,  5.36200e-03, -5.11800e-03, -3.03800e-03,  2.06500e-05,  5.94200e-04],
                           [-4.67600e-01,  6.22000e-03,  4.02900e-02,  1.86100e-02,  3.70100e-03, -1.50000e-03, -1.40400e-03, -2.62500e-04],
                           [-3.28600e-01, -3.36500e-02,  1.23900e-02,  4.93300e-03,  2.96200e-03,  1.90700e-03,  3.28000e-04, -3.85300e-04],
                           [-1.32900e-01, -1.07100e-01, -5.35300e-04,  6.46500e-03,  8.76000e-04, -8.59300e-05,  1.17700e-04,  1.23000e-04],
                           [-8.87200e-02, -5.61300e-02, -2.68400e-03,  6.28100e-03,  2.26600e-03, -3.32200e-04, -8.27800e-04, -2.33600e-04],
                           [-4.95300e-02, -5.47400e-02, -3.83700e-03,  8.40700e-03,  2.76000e-03,  1.12900e-04, -2.65000e-04, -1.84000e-04]])

# Reaction 4
chebyshev_reaction('gQOOHb (+ M) <=> gRO2 (+ M)',
                   Tmin=180.0, Tmax=1500.0,
                   Pmin=(0.01, 'atm'), Pmax=(98.692, 'atm'),
                   coeffs=[[-7.46800e-01,  8.61000e-01,  2.50600e-04, -7.02500e-03, -5.13800e-04, -2.14600e-04, -5.63200e-05,  4.34700e-05],
                           [ 2.54500e+00,  1.43800e+00,  2.84800e-02, -9.47000e-03, -1.33300e-03, -7.11600e-04, -8.47600e-05,  9.40000e-05],
                           [-2.17000e+00,  7.96500e-01,  7.23700e-02,  4.26400e-03, -2.06700e-03, -1.19500e-03, -5.68000e-05,  9.95600e-05],
                           [-1.56700e+00,  2.03000e-01,  7.58000e-02,  1.92400e-02, -1.62200e-03, -1.40700e-03, -6.63500e-05,  6.64300e-05],
                           [-1.08800e+00, -1.04300e-01,  3.99800e-02,  2.28700e-02,  5.61600e-04, -9.62600e-04, -1.09600e-04, -1.36400e-05],
                           [-5.96100e-01, -1.55900e-01,  4.97900e-03,  1.38200e-02,  2.22300e-03,  5.71700e-05, -1.04300e-04, -1.11800e-04],
                           [-3.25000e-01, -1.02500e-01, -5.91400e-03,  3.32000e-03,  1.59900e-03,  8.48500e-04,  1.09200e-06, -1.72100e-04],
                           [-1.19000e-01, -5.44300e-02, -7.85200e-04,  5.01200e-04,  1.30900e-04,  7.25600e-04,  7.47200e-05, -1.59000e-04],
                           [-4.58300e-02, -3.84200e-02,  2.89900e-03,  4.27900e-03,  1.43800e-04,  1.81600e-05, -5.61400e-05, -1.06300e-04],
                           [-1.62100e-02, -3.77300e-02, -1.88100e-03,  8.09100e-03,  1.89600e-03, -4.30500e-04, -3.31100e-04, -7.77200e-05]])

# Reaction 5
chebyshev_reaction('O2 + gR (+ M) <=> gRO2 (+ M)',
                   Tmin=180.0, Tmax=1500.0,
                   Pmin=(0.01, 'atm'), Pmax=(98.692, 'atm'),
                   coeffs=[[ 9.29600e+00,  4.96700e-01, -9.51200e-02,  1.87700e-02, -3.91700e-03,  3.48700e-04, -1.24300e-04,  1.02200e-04],
                           [-1.74200e+00,  8.85100e-01, -1.40800e-01,  1.89000e-02, -1.65000e-03, -1.08000e-03,  2.44300e-04,  8.05000e-05],
                           [-1.15400e+00,  6.65000e-01, -5.86600e-02, -3.85500e-03,  3.10700e-03, -1.56000e-03,  2.50500e-04,  8.81400e-05],
                           [-8.28500e-01,  4.18000e-01,  1.46000e-02, -1.66600e-02,  3.47300e-03, -6.79100e-04,  1.34400e-05,  9.58400e-05],
                           [-5.87300e-01,  2.07200e-01,  5.57200e-02, -1.58900e-02,  6.06500e-04,  5.21600e-04, -9.96100e-05,  2.08100e-05],
                           [-3.98600e-01,  5.72100e-02,  6.45200e-02, -7.06700e-03, -2.28400e-03,  1.03200e-03,  2.99900e-05, -9.92600e-05],
                           [-2.55200e-01, -3.27400e-02,  5.19700e-02,  2.82500e-03, -3.19800e-03,  7.33700e-04,  2.16500e-04, -1.72700e-04],
                           [-1.50700e-01, -7.50200e-02,  3.03600e-02,  9.42600e-03, -2.05300e-03,  1.02300e-04,  2.49200e-04, -1.61600e-04],
                           [-7.86900e-02, -8.40700e-02,  8.58100e-03,  1.16200e-02,  1.06400e-04, -3.74200e-04,  8.31000e-05, -9.81000e-05],
                           [-3.22800e-02, -7.28600e-02, -8.34300e-03,  1.02000e-02,  2.16200e-03, -5.16900e-04, -1.71800e-04, -3.38000e-05]])
#  gRO2(+M) <=> gQOOH[O](+M)                           1.000e+00 0.000     0.000
#      TCHEB/ 180.000   1500.000 /
#      PCHEB/ 0.010     98.692   /
#      CHEB/ 10 8/
#      CHEB/ -9.142e+00   1.758e+00    -1.414e-01   -2.769e-02   -8.471e-04  /
#      CHEB/ 1.657e-03    8.701e-04    1.550e-04    5.560e+00    5.256e-01   /
#      CHEB/ 1.228e-01    1.667e-02    -2.986e-03   -8.975e-04   -6.899e-04  /
#      CHEB/ -1.839e-04   -3.265e+00   4.298e-02    -2.041e-02   7.636e-03   /
#      CHEB/ 6.796e-03    2.217e-03    -5.110e-05   -3.965e-04   -1.696e+00  /
#      CHEB/ 7.785e-02    8.814e-03    -5.747e-04   -1.114e-03   -3.597e-04  /
#      CHEB/ 8.310e-05    9.854e-05    -8.908e-01   1.024e-01    5.460e-02   /
#      CHEB/ 1.195e-02    -3.230e-04   -1.938e-03   -8.330e-04   -9.226e-05  /
#      CHEB/ -5.334e-01   5.181e-02    5.425e-02    1.263e-02    1.053e-03   /
#      CHEB/ -2.608e-04   -1.979e-04   -1.994e-04   -3.053e-01   -3.953e-02  /
#      CHEB/ 2.390e-02    8.222e-03    1.371e-03    2.730e-04    1.366e-04   /
#      CHEB/ -2.190e-06   -1.694e-01   -7.212e-02   5.698e-03    4.657e-03   /
#      CHEB/ 4.894e-04    2.561e-04    6.268e-05    -8.118e-05   -8.629e-02  /
#      CHEB/ -7.115e-02   -3.472e-03   5.973e-03    1.818e-03    3.094e-04   /
#      CHEB/ -2.212e-04   -2.076e-04   -2.790e-02   -6.648e-02   -1.343e-02  /
#      CHEB/ 6.790e-03    3.736e-03    6.727e-04    -2.734e-04   -2.223e-04  /

# Reaction 6
chebyshev_reaction('gQOOHa (+ M) <=> gQOOH[O] (+ M)',
                   Tmin=180.0, Tmax=1500.0,
                   Pmin=(0.01, 'atm'), Pmax=(98.692, 'atm'),
                   coeffs=[[-1.12300e+01,  9.25800e-01, -1.69200e-01, -2.31500e-02, -1.55800e-02,  2.71900e-03,  2.35100e-03,  2.36300e-04],
                           [-8.84000e-01,  1.52300e+00,  1.81000e-01,  8.78800e-03,  8.14100e-03, -5.78300e-03, -1.38300e-03,  3.63400e-04],
                           [-5.07200e+00, -2.82800e-02,  3.97000e-02,  5.10100e-03,  1.27300e-02,  3.58200e-03, -1.00200e-03, -4.95000e-04],
                           [-2.16300e+00, -2.86500e-01,  6.46700e-03,  1.08500e-02, -5.03000e-03, -2.23300e-04,  5.80200e-04,  4.53300e-05],
                           [-6.65900e-01, -1.44000e-02, -3.72200e-03,  2.26700e-02, -3.42900e-03, -3.67200e-03, -3.01200e-04,  1.40300e-05],
                           [-3.04500e-01,  2.02000e-01,  2.48300e-02,  5.99900e-03,  1.27700e-03, -1.20900e-03, -2.50600e-04, -5.79600e-05],
                           [-2.58800e-01,  1.00900e-01,  5.57500e-02,  3.42400e-03, -3.93500e-04, -3.93800e-04,  1.39400e-04,  1.85900e-04],
                           [-2.21800e-01, -8.39600e-02,  4.74700e-02,  1.35000e-02, -1.27700e-03, -7.68100e-04,  7.29300e-05,  1.47700e-04],
                           [-1.18100e-01, -1.56200e-01, -7.30900e-03,  2.02200e-02,  3.73700e-03, -5.77700e-04, -4.31800e-04, -1.43900e-04],
                           [-2.60900e-02, -1.03300e-01, -4.58300e-02,  8.38000e-03,  7.99200e-03,  9.54100e-04, -7.62700e-04, -3.99400e-04]])

# Reaction 7
chebyshev_reaction('gQOOHg (+ M) <=> gQOOH[O] (+ M)',
                   Tmin=180.0, Tmax=1500.0,
                   Pmin=(0.01, 'atm'), Pmax=(98.692, 'atm'),
                   coeffs=[[-6.93100e+00,  2.30300e+00, -3.53200e-01, -8.95100e-02,  9.95700e-03,  4.78400e-05,  2.14600e-03,  1.27200e-03],
                           [-4.88000e+00,  3.35900e-01,  4.79200e-01,  7.03000e-02, -3.46700e-02, -8.71900e-04, -7.91200e-04, -5.37600e-04],
                           [-4.08800e+00, -4.03700e-01, -1.57700e-01,  5.11400e-02,  3.31000e-02,  3.72800e-04, -3.52200e-03, -1.00100e-03],
                           [-1.78900e+00,  8.07400e-02, -8.11000e-02, -3.60400e-02, -3.85100e-03,  3.94600e-03,  2.18100e-03, -3.37200e-04],
                           [-7.42100e-01,  2.35700e-01,  7.78900e-02,  3.92100e-03, -1.06600e-02, -6.44600e-03, -2.08000e-04,  1.23000e-03],
                           [-4.69600e-01,  1.19500e-01,  9.06600e-02,  2.31800e-02,  1.20300e-03, -1.96000e-03, -1.49800e-03, -3.11300e-04],
                           [-3.27700e-01, -8.47500e-03,  2.23800e-02,  8.89700e-03,  4.35300e-03,  1.64000e-03,  2.92400e-04, -1.81900e-04],
                           [-1.37900e-01, -1.20900e-01,  3.17300e-04,  4.29800e-03,  3.11100e-05,  4.36400e-04,  2.08100e-04,  1.27400e-05],
                           [-1.06000e-01, -6.08900e-02, -6.52900e-03,  6.13300e-03,  1.94900e-03, -4.50900e-04, -8.49600e-04, -3.04200e-04],
                           [-4.86500e-02, -6.64100e-02, -4.66100e-03,  9.31900e-03,  3.09600e-03,  3.05200e-04, -2.28700e-04, -2.07600e-04]])

# Reaction 8
chebyshev_reaction('gQOOHb (+ M) <=> gQOOH[O] (+ M)',
                   Tmin=180.0, Tmax=1500.0,
                   Pmin=(0.01, 'atm'), Pmax=(98.692, 'atm'),
                   coeffs=[[-1.23400e+01,  8.90400e-01, -1.02500e-01, -4.99400e-02, -1.54500e-02,  2.53200e-03,  2.71800e-03,  4.75700e-04],
                           [ 3.47100e+00,  1.66100e+00,  1.17500e-01,  2.80000e-02,  2.27300e-03, -4.15300e-03, -1.46600e-03,  3.08700e-05],
                           [-3.16200e+00,  3.59700e-01, -2.93900e-02,  6.58300e-03,  1.63900e-02,  3.96100e-03, -1.18400e-03, -8.64100e-04],
                           [-1.89700e+00,  7.80400e-02,  3.57200e-02,  1.69100e-03, -4.74600e-03,  7.65000e-05,  1.13700e-04,  5.32900e-05],
                           [-1.01900e+00,  2.87500e-02,  7.52900e-02,  2.45100e-02, -5.89000e-03, -3.60900e-03, -3.65800e-04,  1.53700e-04],
                           [-5.83700e-01, -2.91600e-03,  4.56500e-02,  1.97300e-02,  1.14900e-03, -9.58800e-04,  3.85100e-05, -2.85600e-05],
                           [-2.92800e-01, -7.29100e-02,  5.07200e-03,  8.33900e-03,  2.76700e-03,  4.57500e-04,  2.28400e-04,  4.48700e-05],
                           [-1.49800e-01, -7.07700e-02, -4.00100e-03,  1.55800e-04,  4.23800e-04,  4.24000e-04,  2.80700e-05, -6.54400e-05],
                           [-6.71600e-02, -5.24800e-02,  5.01600e-04,  3.29600e-03,  2.84000e-04, -1.69600e-04, -2.64000e-04, -1.35300e-04],
                           [-1.75200e-02, -4.87200e-02, -3.12100e-03,  7.93600e-03,  2.41400e-03, -8.72700e-05, -3.56500e-04, -1.53700e-04]])

# Reaction 9
chebyshev_reaction('O2 + gR (+ M) <=> gQOOH[O] (+ M)',
                   Tmin=180.0, Tmax=1500.0,
                   Pmin=(0.01, 'atm'), Pmax=(98.692, 'atm'),
                   coeffs=[[-6.88800e-01,  1.41800e+00,  1.23600e-01, -5.87100e-02, -6.37100e-02, -6.78800e-03,  6.31000e-03,  3.68800e-03],
                           [-2.85000e+00, -1.51400e-01, -3.79900e-01,  1.04300e-01,  6.68300e-02,  9.17400e-03, -5.85900e-03, -4.52700e-03],
                           [-1.84000e+00,  4.03600e-01, -1.78100e-01, -2.70000e-02,  8.76200e-03,  3.43800e-04, -3.07400e-04,  2.83700e-04],
                           [-9.57300e-01,  4.96900e-01,  1.49100e-02, -4.17900e-02, -7.62500e-03, -1.46200e-03,  1.33300e-03,  6.04300e-04],
                           [-5.28000e-01,  3.23800e-01,  1.15100e-01, -5.41800e-03, -3.23200e-03, -2.46300e-03, -7.90400e-04, -5.27500e-05],
                           [-3.97600e-01,  1.53800e-01,  1.02600e-01,  1.85100e-04, -7.13100e-04,  1.31200e-03,  8.37100e-05, -1.33600e-04],
                           [-2.42700e-01, -4.10800e-02,  6.23600e-02,  9.09700e-03, -2.57200e-03,  2.35200e-04,  3.81600e-04,  9.45600e-06],
                           [-1.67100e-01, -8.27000e-02,  2.49300e-02,  6.29300e-03, -2.58000e-03,  3.56100e-05,  3.89200e-04, -2.61900e-05],
                           [-9.53200e-02, -8.77400e-02,  6.48000e-03,  1.02200e-02, -2.60200e-04, -7.38000e-04, -9.28900e-05, -1.12400e-04],
                           [-3.56800e-02, -8.02900e-02, -9.60000e-03,  1.04600e-02,  2.71500e-03, -3.37900e-04, -1.92700e-04, -9.97100e-05]])
#  gRO2(+M) <=> gQOOHa(+M)                             1.000e+00 0.000     0.000
#      TCHEB/ 180.000   1500.000 /
#      PCHEB/ 0.010     98.692   /
#      CHEB/ 10 8/
#      CHEB/ -3.735e+00   8.506e-01    2.343e-02    -2.333e-03   -1.804e-03  /
#      CHEB/ 1.068e-04    -2.604e-04   3.603e-05    1.044e+00    1.234e+00   /
#      CHEB/ 8.455e-02    -6.859e-03   -1.609e-03   -6.877e-04   -2.013e-04  /
#      CHEB/ 1.068e-04    -3.711e+00   3.329e-01    1.108e-01    1.847e-03   /
#      CHEB/ -1.128e-03   -1.219e-03   6.787e-05    1.991e-04    -1.733e+00  /
#      CHEB/ -1.989e-01   5.619e-02    1.629e-02    -1.348e-03   -1.097e-03  /
#      CHEB/ 1.027e-04    1.170e-04    -6.393e-01   -1.597e-01   -9.919e-03  /
#      CHEB/ 1.611e-02    -9.210e-05   -7.093e-04   -6.512e-05   -8.426e-05  /
#      CHEB/ -2.942e-01   4.125e-02    -9.093e-04   3.870e-03    3.501e-04   /
#      CHEB/ -2.832e-04   -1.910e-04   -1.598e-04   -2.645e-01   4.917e-02   /
#      CHEB/ 4.745e-02    3.117e-03    -1.368e-03   -2.390e-04   -4.797e-05  /
#      CHEB/ -5.479e-05   -1.911e-01   -8.465e-02   4.595e-02    1.679e-02   /
#      CHEB/ -9.610e-04   -6.485e-04   1.242e-04    1.737e-05    -1.037e-01  /
#      CHEB/ -1.479e-01   -9.437e-03   2.180e-02    3.811e-03    -5.643e-04  /
#      CHEB/ -1.299e-04   -1.054e-04   -2.254e-02   -8.984e-02   -4.678e-02  /
#      CHEB/ 7.996e-03    7.427e-03    4.195e-04    -6.452e-04   -2.651e-04  /
#  gQOOH[O](+M) <=> gQOOHa(+M)                         1.000e+00 0.000     0.000
#      TCHEB/ 180.000   1500.000 /
#      PCHEB/ 0.010     98.692   /
#      CHEB/ 10 8/
#      CHEB/ -1.428e+00   9.258e-01    -1.692e-01   -2.315e-02   -1.558e-02  /
#      CHEB/ 2.719e-03    2.351e-03    2.363e-04    -7.959e+00   1.523e+00   /
#      CHEB/ 1.810e-01    8.788e-03    8.141e-03    -5.783e-03   -1.383e-03  /
#      CHEB/ 3.634e-04    -5.084e+00   -2.828e-02   3.970e-02    5.101e-03   /
#      CHEB/ 1.273e-02    3.582e-03    -1.002e-03   -4.950e-04   -2.214e+00  /
#      CHEB/ -2.865e-01   6.467e-03    1.085e-02    -5.030e-03   -2.233e-04  /
#      CHEB/ 5.802e-04    4.533e-05    -6.910e-01   -1.440e-02   -3.722e-03  /
#      CHEB/ 2.267e-02    -3.429e-03   -3.672e-03   -3.012e-04   1.403e-05   /
#      CHEB/ -3.138e-01   2.020e-01    2.483e-02    5.999e-03    1.277e-03   /
#      CHEB/ -1.209e-03   -2.506e-04   -5.796e-05   -2.621e-01   1.009e-01   /
#      CHEB/ 5.575e-02    3.424e-03    -3.935e-04   -3.938e-04   1.394e-04   /
#      CHEB/ 1.859e-04    -2.231e-01   -8.396e-02   4.747e-02    1.350e-02   /
#      CHEB/ -1.277e-03   -7.681e-04   7.293e-05    1.477e-04    -1.185e-01  /
#      CHEB/ -1.562e-01   -7.309e-03   2.022e-02    3.737e-03    -5.777e-04  /