units(length='cm', time='s', quantity='mol', act_energy='kcal/mol')

ideal_gas(name='gas',
          elements="H D T C Ci O Oi N Ne Ar He Si S F Cl Br I X",
          species="""OH             bQOOH[O]       acetone
                     H2O            balkoxyketone  ibutenol
                     trisub_epoxy   bQOOHg         CH2O
                     galkene        O2             bR
                     bQOOHa         bRO2           disub_epoxy
                     HO2""",
          reactions='all',
          initial_state=state(temperature=300.0, pressure=OneAtm))

#-------------------------------------------------------------------------------
# Element data
#-------------------------------------------------------------------------------

element(symbol='Ci', atomic_mass=13.003)
element(symbol='D', atomic_mass=2.014)
element(symbol='Oi', atomic_mass=18.0)
element(symbol='T', atomic_mass=3.016)
element(symbol='X', atomic_mass=195.083)
#-------------------------------------------------------------------------------
# Species data
#-------------------------------------------------------------------------------

species(name='OH',
        atoms='H:1 O:1',
        thermo=(NASA([10.00, 984.14],
                     [ 3.49686242E+00,  1.83973160E-04, -9.97634499E-07,
                       1.56942783E-09, -6.10128175E-13,  3.41673934E+03,
                       1.48093120E+00]),
                NASA([984.14, 3000.00],
                     [ 3.45221464E+00, -2.95124034E-04,  7.39418622E-07,
                      -2.89309866E-10,  3.53041498E-14,  3.45751599E+03,
                       1.85813897E+00])))

species(name='bQOOH[O]',
        atoms='C:4 H:9 O:3',
        thermo=(NASA([10.00, 338.69],
                     [ 3.60915854E+00,  3.39069566E-02,  2.22227265E-04,
                      -8.23527342E-07,  8.56246333E-10, -2.13995542E+04,
                       1.23284605E+01]),
                NASA([338.69, 3000.00],
                     [ 5.03198881E+00,  5.46235886E-02, -3.56935806E-05,
                       1.12371751E-08, -1.35390171E-12, -2.17111369E+04,
                       3.82760723E+00])))

species(name='acetone',
        atoms='C:3 H:6 O:1',
        thermo=(NASA([10.00, 414.35],
                     [ 3.73496166E+00,  3.05743218E-02, -1.26253585E-04,
                       3.66080978E-07, -3.31430437E-10, -2.70100761E+04,
                       8.24936012E+00]),
                NASA([414.35, 3000.00],
                     [ 1.70010292E-01,  3.28431468E-02, -1.80960132E-05,
                       4.82960690E-09, -5.02388538E-13, -2.64386931E+04,
                       2.56372653E+01])))

species(name='H2O',
        atoms='H:2 O:1',
        thermo=(NASA([10.00, 773.84],
                     [ 4.00473541E+00, -2.39729134E-04,  8.11862955E-07,
                       1.47891862E-09, -1.19783539E-12, -3.03533807E+04,
                      -9.96254147E-02]),
                NASA([773.84, 3000.00],
                     [ 3.52133374E+00,  1.05377009E-03,  6.40722099E-07,
                      -3.86240235E-10,  5.49243294E-14, -3.02424794E+04,
                       2.34173094E+00])))

species(name='balkoxyketone',
        atoms='C:4 H:7 O:2',
        thermo=(NASA([10.00, 269.93],
                     [ 3.81931151E+00,  1.68519318E-02,  2.42742224E-04,
                      -9.64821161E-07,  1.18509335E-09, -2.08767249E+04,
                       1.20521854E+01]),
                NASA([269.93, 3000.00],
                     [ 3.57555944E+00,  4.28868089E-02, -2.65390705E-05,
                       7.99659117E-09, -9.32983470E-13, -2.09452530E+04,
                       1.13957990E+01])))

species(name='ibutenol',
        atoms='C:4 H:8 O:1',
        thermo=(NASA([10.00, 135.97],
                     [ 3.95714996E+00,  5.72646980E-03,  4.63611760E-04,
                      -3.04137514E-06,  6.85019471E-09, -2.43783069E+04,
                       8.21931848E+00]),
                NASA([135.97, 3000.00],
                     [ 3.32467612E+00,  3.69033556E-02, -1.89960416E-05,
                       4.73417677E-09, -4.59705291E-13, -2.43727282E+04,
                       9.58133237E+00])))

species(name='trisub_epoxy',
        atoms='C:4 H:8 O:2',
        thermo=(NASA([10.00, 209.19],
                     [ 3.75295042E+00,  2.37546930E-02,  1.26610110E-04,
                      -4.78364365E-07,  5.79468168E-10, -4.18086476E+04,
                       1.12739684E+01]),
                NASA([209.19, 3000.00],
                     [ 2.64185254E+00,  4.50006531E-02, -2.57361066E-05,
                       7.15266054E-09, -7.72980731E-13, -4.17621621E+04,
                       1.48960343E+01])))

species(name='bQOOHg',
        atoms='C:4 H:9 O:3',
        thermo=(NASA([10.00, 441.09],
                     [ 3.56595280E+00,  3.36073467E-02,  2.03462772E-04,
                      -5.98977617E-07,  4.83271168E-10, -2.46502462E+04,
                       1.33537891E+01]),
                NASA([441.09, 3000.00],
                     [ 6.09031192E+00,  5.80517622E-02, -4.06392697E-05,
                       1.32574026E-08, -1.62501077E-12, -2.53334316E+04,
                      -1.97849715E+00])))

species(name='CH2O',
        atoms='C:1 H:2 O:1',
        thermo=(NASA([10.00, 601.31],
                     [ 4.03190845E+00, -1.93233367E-03,  8.89743345E-06,
                       2.98105926E-09, -7.90813886E-12, -1.42276270E+04,
                       3.47574660E+00]),
                NASA([601.31, 3000.00],
                     [ 1.40134195E+00,  9.48858016E-03, -4.43088317E-06,
                       9.48452194E-10, -7.43790219E-14, -1.38013869E+04,
                       1.57423780E+01])))

species(name='galkene',
        atoms='C:4 H:8 O:1',
        thermo=(NASA([10.00, 383.47],
                     [ 3.84035604E+00,  1.20378740E-02,  1.87486319E-04,
                      -5.44759148E-07,  4.80711015E-10, -2.16492119E+04,
                       1.02570291E+01]),
                NASA([383.47, 3000.00],
                     [ 4.00413385E+00,  3.79025144E-02, -2.15435710E-05,
                       6.15213311E-09, -6.97446345E-13, -2.18645012E+04,
                       6.98052628E+00])))

species(name='O2',
        atoms='O:2',
        thermo=(NASA([10.00, 605.96],
                     [ 3.50743498E+00, -4.43860349E-04,  1.45938058E-06,
                       1.61509333E-09, -2.32050052E-12, -9.24756224E+02,
                       4.72183634E+00]),
                NASA([605.96, 3000.00],
                     [ 2.87462882E+00,  2.17840991E-03, -1.18262921E-06,
                       2.86910493E-10, -2.53297146E-14, -8.19517838E+02,
                       7.69331810E+00])))

species(name='bR',
        atoms='C:4 H:9 O:1',
        thermo=(NASA([10.00, 483.43],
                     [ 3.38164846E+00,  5.97142637E-02, -1.58320095E-04,
                       3.04908893E-07, -2.13091806E-10, -1.22674893E+04,
                       1.09226843E+01]),
                NASA([483.43, 3000.00],
                     [ 2.33428824E+00,  4.22094427E-02, -2.28029290E-05,
                       6.04614564E-09, -6.30240159E-13, -1.18604074E+04,
                       1.83772893E+01])))

species(name='bQOOHa',
        atoms='C:4 H:9 O:3',
        thermo=(NASA([10.00, 390.53],
                     [ 3.54969236E+00,  3.76592474E-02,  1.76622653E-04,
                      -5.98063750E-07,  5.45069236E-10, -2.57625863E+04,
                       1.31518761E+01]),
                NASA([390.53, 3000.00],
                     [ 5.33564209E+00,  5.64935715E-02, -3.83214298E-05,
                       1.22990604E-08, -1.49549987E-12, -2.61851962E+04,
                       2.59015836E+00])))

species(name='bRO2',
        atoms='C:4 H:9 O:3',
        thermo=(NASA([10.00, 461.39],
                     [ 3.53964713E+00,  3.88723795E-02,  9.57420148E-05,
                      -2.80380499E-07,  2.09647462E-10, -3.28617095E+04,
                       1.18803618E+01]),
                NASA([461.39, 3000.00],
                     [ 3.47201723E+00,  6.00510247E-02, -4.00567321E-05,
                       1.25663813E-08, -1.49496682E-12, -3.30746563E+04,
                       9.77903975E+00])))

species(name='disub_epoxy',
        atoms='C:4 H:8 O:2',
        thermo=(NASA([10.00, 549.41],
                     [ 3.89863211E+00,  5.97532637E-03,  1.66685676E-04,
                      -3.10743768E-07,  1.78330192E-10, -3.75118888E+04,
                       1.13847308E+01]),
                NASA([549.41, 3000.00],
                     [-6.40277648E-01,  6.05960003E-02, -4.13427220E-05,
                       1.31555461E-08, -1.57685017E-12, -3.73387720E+04,
                       2.76005436E+01])))

species(name='HO2',
        atoms='H:1 O:2',
        thermo=(NASA([10.00, 891.11],
                     [ 4.02887004E+00, -1.75769289E-03,  1.08726004E-05,
                      -1.13812972E-08,  3.90113097E-12,  4.95165001E+02,
                       4.69302008E+00]),
                NASA([891.11, 3000.00],
                     [ 3.06571044E+00,  4.28505005E-03, -2.19325920E-06,
                       5.58882699E-10, -5.61246669E-14,  5.98557610E+02,
                       8.84564156E+00])))

#-------------------------------------------------------------------------------
# Reaction data
#-------------------------------------------------------------------------------

# Reaction 1
chebyshev_reaction('bQOOHg (+ M) <=> bRO2 (+ M)',
                   Tmin=180.0, Tmax=1500.0,
                   Pmin=(0.01, 'atm'), Pmax=(98.692, 'atm'),
                   coeffs=[[ 2.55200e-01,  5.82200e-01, -3.22700e-02,  7.29200e-03,  1.79100e-03, -6.07500e-04, -1.67200e-05,  4.68200e-05],
                           [ 2.29200e+00,  9.67300e-01, -3.04200e-02,  1.05500e-02,  3.02100e-03, -8.01100e-04, -4.85500e-05,  7.06600e-05],
                           [-2.13000e+00,  5.08000e-01,  3.41900e-02,  4.92200e-03,  1.33500e-03,  7.41700e-05, -4.33100e-05,  1.81900e-05],
                           [-1.60000e+00,  6.06800e-02,  6.26400e-02,  6.11000e-03, -4.07300e-04,  5.84800e-04,  5.14900e-05, -2.62500e-05],
                           [-1.11700e+00, -1.83000e-01,  3.37400e-02,  1.09300e-02, -3.08300e-04,  3.54200e-04,  1.56400e-04, -2.93200e-05],
                           [-5.18700e-01, -2.12500e-01, -1.73400e-02,  9.97700e-03,  1.63400e-03, -5.07000e-05,  1.13800e-04, -1.43500e-06],
                           [-2.66500e-01, -1.30200e-01, -4.67100e-02,  1.11600e-03,  2.93000e-03,  5.74000e-05, -4.71700e-05,  8.16900e-06],
                           [-1.72500e-02, -3.74800e-02, -4.13500e-02, -8.52200e-03,  1.63200e-03,  4.95800e-04, -1.07900e-04, -1.55400e-05],
                           [ 9.58100e-03,  1.91200e-02, -1.71100e-02, -1.15500e-02, -1.35700e-03,  5.26900e-04,  2.88900e-05, -1.96500e-05],
                           [ 6.63000e-03,  3.72800e-02,  5.05500e-03, -7.26700e-03, -3.48100e-03, -1.01800e-04,  1.96500e-04,  3.90100e-05]])

# Reaction 2
chebyshev_reaction('bQOOHa (+ M) <=> bRO2 (+ M)',
                   Tmin=180.0, Tmax=1500.0,
                   Pmin=(0.01, 'atm'), Pmax=(98.692, 'atm'),
                   coeffs=[[-1.37300e+00,  1.83300e+00, -2.24400e-01,  6.16000e-02, -3.22500e-03, -9.77000e-03,  2.78600e-03,  2.30000e-04],
                           [-3.76200e-01,  9.54600e-01,  3.90100e-01, -5.53700e-02, -1.01000e-02,  2.47900e-03, -1.61400e-03,  8.60000e-04],
                           [-2.60500e+00,  1.90000e-02,  9.57800e-02,  2.01800e-02, -1.86500e-03,  4.97400e-04, -2.81100e-04, -6.92100e-05],
                           [-1.21400e+00, -2.56700e-01, -5.73700e-02, -3.86400e-04,  5.89100e-03,  3.93800e-03, -2.84400e-04, -5.59200e-04],
                           [-6.24800e-01, -1.03000e-01, -7.54800e-02, -1.09100e-02,  3.15400e-03,  8.62200e-04,  3.70700e-04, -7.33500e-05],
                           [-2.34100e-01, -4.78300e-02, -7.30900e-03, -2.26700e-03, -2.05100e-03, -7.36000e-04, -2.60100e-04,  6.68600e-05],
                           [-1.32600e-01, -5.80700e-03,  4.09200e-03,  6.43300e-03,  8.06400e-04, -1.26200e-03, -4.23300e-04,  2.32900e-05],
                           [-6.03500e-02, -1.90900e-02,  4.76000e-04,  3.26700e-03,  1.43400e-03,  2.19300e-04, -7.35100e-05, -2.70700e-05],
                           [-4.28800e-02, -1.11200e-02, -9.99100e-03, -1.67600e-03,  7.46200e-04,  3.45000e-04,  2.71700e-04,  5.73200e-05],
                           [-1.11400e-02, -1.29400e-02, -5.30600e-03, -3.07600e-03, -1.02600e-03,  2.17200e-04,  1.55000e-04,  3.14700e-05]])

# Reaction 3
chebyshev_reaction('bQOOH[O] (+ M) <=> bRO2 (+ M)',
                   Tmin=180.0, Tmax=1500.0,
                   Pmin=(0.01, 'atm'), Pmax=(98.692, 'atm'),
                   coeffs=[[ 4.96800e+00,  1.98800e+00, -1.59000e-02, -6.90900e-03, -1.94500e-03, -2.35400e-04,  3.31800e-05,  3.52300e-07],
                           [-5.65300e+00,  5.11000e-02,  1.42700e-02,  5.04900e-03,  8.82600e-04, -7.58400e-05, -3.07900e-05,  7.04700e-05],
                           [-2.56400e+00, -6.99100e-03, -1.62200e-02, -7.50200e-03, -2.33600e-03, -3.85500e-04,  1.37700e-05,  1.90700e-05],
                           [-1.21500e+00,  9.77400e-03, -6.08200e-04, -8.49300e-04, -5.10000e-04, -1.79300e-04, -1.92800e-05,  2.45800e-05],
                           [-4.99800e-01, -8.80000e-03, -6.32800e-03, -3.12400e-03, -1.06100e-03, -1.91000e-04,  3.02300e-05,  3.61700e-05],
                           [-2.97400e-01, -7.97900e-03, -1.67300e-03, -9.82800e-04, -5.06200e-04, -1.91300e-04, -3.61300e-05,  8.97900e-06],
                           [-1.55600e-01, -1.52400e-02, -3.80200e-03, -1.52600e-03, -5.22400e-04, -1.23100e-04, -4.72500e-06,  1.06700e-05],
                           [-6.99900e-02, -1.22300e-02, -1.98200e-03, -6.11600e-04, -2.67700e-04, -1.02100e-04, -2.04500e-05,  3.11200e-06],
                           [-1.21100e-02, -1.06900e-02, -2.48600e-03, -7.13500e-04, -2.43300e-04, -7.19000e-05, -1.13000e-05,  1.63900e-06],
                           [-2.80900e-02, -5.79900e-03, -1.58700e-03, -3.18800e-04, -8.95600e-05, -3.81600e-05, -1.58900e-05, -3.98300e-06]])

# Reaction 4
chebyshev_reaction('O2 + bR (+ M) <=> bRO2 (+ M)',
                   Tmin=180.0, Tmax=1500.0,
                   Pmin=(0.01, 'atm'), Pmax=(98.692, 'atm'),
                   coeffs=[[ 1.29800e+01,  6.17800e-01, -5.53100e-02,  5.00000e-03, -7.43800e-04,  4.84700e-05,  2.81200e-06,  1.43600e-06],
                           [-2.12800e+00,  9.27800e-01, -2.76600e-02, -6.29600e-03,  8.51000e-04,  5.56400e-06, -4.50400e-05,  8.96200e-06],
                           [-1.42600e+00,  4.53700e-01,  3.92500e-02, -5.28000e-03, -8.81500e-04,  1.89000e-04,  1.01400e-05, -1.06000e-05],
                           [-9.09400e-01,  1.35600e-01,  3.93900e-02,  3.11600e-03, -8.69100e-04, -1.59800e-04,  3.77200e-05,  4.06800e-06],
                           [-5.32700e-01, -2.03400e-03,  1.61200e-02,  4.94400e-03,  4.50100e-04, -1.73500e-04, -3.05500e-05,  6.18400e-06],
                           [-2.93100e-01, -4.02700e-02,  7.83400e-04,  2.27200e-03,  8.05000e-04,  6.38200e-05, -2.91700e-05, -8.00200e-06],
                           [-1.50600e-01, -4.06500e-02, -4.32000e-03,  1.24500e-04,  3.59600e-04,  1.27100e-04,  1.64300e-05, -5.92700e-06],
                           [-6.95300e-02, -3.05800e-02, -4.94600e-03, -5.26400e-04,  6.44000e-06,  4.41700e-05,  2.38200e-05,  3.77800e-06],
                           [-2.54400e-02, -1.92700e-02, -4.42900e-03, -5.69500e-04, -7.01000e-05, -1.21000e-05,  4.59600e-06,  4.55400e-06],
                           [-3.23200e-03, -9.47100e-03, -3.51600e-03, -5.92900e-04, -6.00400e-05, -1.14400e-05, -4.96400e-06,  3.13700e-07]])
#  bRO2(+M) <=> bQOOHg(+M)                             1.000e+00 0.000     0.000
#      TCHEB/ 180.000   1500.000 /
#      PCHEB/ 0.010     98.692   /
#      CHEB/ 10 8/
#      CHEB/ -9.887e+00   5.822e-01    -3.227e-02   7.292e-03    1.791e-03   /
#      CHEB/ -6.075e-04   -1.672e-05   4.682e-05    1.140e+01    9.673e-01   /
#      CHEB/ -3.042e-02   1.055e-02    3.021e-03    -8.011e-04   -4.855e-05  /
#      CHEB/ 7.066e-05    -1.984e+00   5.080e-01    3.419e-02    4.922e-03   /
#      CHEB/ 1.335e-03    7.417e-05    -4.331e-05   1.819e-05    -1.563e+00  /
#      CHEB/ 6.068e-02    6.264e-02    6.110e-03    -4.073e-04   5.848e-04   /
#      CHEB/ 5.149e-05    -2.625e-05   -1.111e+00   -1.830e-01   3.374e-02   /
#      CHEB/ 1.093e-02    -3.083e-04   3.542e-04    1.564e-04    -2.932e-05  /
#      CHEB/ -5.188e-01   -2.125e-01   -1.734e-02   9.977e-03    1.634e-03   /
#      CHEB/ -5.070e-05   1.138e-04    -1.435e-06   -2.670e-01   -1.302e-01  /
#      CHEB/ -4.671e-02   1.116e-03    2.930e-03    5.740e-05    -4.717e-05  /
#      CHEB/ 8.169e-06    -1.770e-02   -3.748e-02   -4.135e-02   -8.522e-03  /
#      CHEB/ 1.632e-03    4.958e-04    -1.079e-04   -1.554e-05   9.257e-03   /
#      CHEB/ 1.912e-02    -1.711e-02   -1.155e-02   -1.357e-03   5.269e-04   /
#      CHEB/ 2.889e-05    -1.965e-05   6.443e-03    3.728e-02    5.055e-03   /
#      CHEB/ -7.267e-03   -3.481e-03   -1.018e-04   1.965e-04    3.901e-05   /

# Reaction 5
chebyshev_reaction('bQOOHa (+ M) <=> bQOOHg (+ M)',
                   Tmin=180.0, Tmax=1500.0,
                   Pmin=(0.01, 'atm'), Pmax=(98.692, 'atm'),
                   coeffs=[[-1.15300e+01,  1.52700e+00, -1.52200e-01, -2.32200e-02, -4.86900e-03, -5.52200e-04,  5.36500e-04, -5.84500e-04],
                           [ 3.22600e+00,  1.46900e+00,  4.85100e-01,  5.16600e-02, -2.59500e-02, -1.20400e-02,  2.52900e-03,  2.50000e-03],
                           [-2.58700e+00, -7.66100e-02, -6.04000e-02,  3.94800e-02,  3.09800e-02,  6.02900e-03, -3.92300e-03, -1.28100e-03],
                           [-1.79300e+00, -3.21200e-01, -7.65100e-02, -1.99700e-02,  5.13000e-03,  7.34000e-03,  6.54900e-04, -7.39000e-04],
                           [-1.06200e+00, -1.39500e-01,  1.09700e-02, -1.01100e-02, -1.24400e-02, -1.83700e-03,  1.73700e-03,  4.48100e-04],
                           [-4.50000e-01, -1.50500e-01,  2.14800e-02,  1.77600e-02, -4.53900e-03, -4.48600e-03, -1.88200e-04,  6.75200e-04],
                           [-2.14200e-01, -7.36600e-02, -2.36600e-02,  1.04200e-02,  5.89100e-03,  1.93500e-04, -9.26400e-04, -4.88700e-04],
                           [-2.24600e-02, -5.85400e-02, -3.84200e-02,  1.52200e-03,  6.30100e-03,  8.05300e-04, -4.74000e-04, -8.25700e-05],
                           [ 7.47400e-03,  1.18100e-02, -2.48400e-02, -1.20400e-02,  3.65900e-04,  1.57300e-03,  3.65200e-04, -7.51600e-05],
                           [ 1.22100e-02,  3.61500e-02, -2.24000e-04, -1.20900e-02, -4.60200e-03,  6.98000e-04,  5.78100e-04,  2.71700e-05]])

# Reaction 6
chebyshev_reaction('bQOOH[O] (+ M) <=> bQOOHg (+ M)',
                   Tmin=180.0, Tmax=1500.0,
                   Pmin=(0.01, 'atm'), Pmax=(98.692, 'atm'),
                   coeffs=[[-5.52700e+00,  9.21700e-01,  1.62900e-01,  8.01500e-02,  1.21900e-02, -6.80200e-03, -4.86400e-03, -1.29800e-03],
                           [-1.96600e+00,  6.76400e-01, -1.85200e-01, -3.12000e-02,  1.04300e-02,  1.31400e-02,  6.76200e-03,  1.22800e-03],
                           [-2.33800e+00,  4.27800e-01, -2.69200e-02, -3.25700e-02, -1.71600e-02, -6.42900e-03, -1.01000e-03,  6.91600e-04],
                           [-1.75100e+00,  7.32400e-02,  6.42100e-02,  1.08100e-03, -6.40400e-03, -3.21200e-03, -1.54000e-03, -4.20300e-04],
                           [-1.04200e+00, -1.68500e-01,  4.54100e-02,  1.91300e-02,  3.60900e-03,  1.37200e-03, -1.14400e-04, -5.05700e-04],
                           [-5.53500e-01, -2.01300e-01, -9.78700e-03,  1.50100e-02,  4.42500e-03,  1.42100e-03,  7.76800e-04,  2.01700e-04],
                           [-2.61200e-01, -1.24100e-01, -4.30900e-02,  3.12100e-03,  3.77100e-03,  4.17300e-04,  1.22200e-04,  1.08200e-04],
                           [-2.47500e-02, -4.46400e-02, -4.64500e-02, -1.12300e-02,  5.82300e-04,  3.39000e-04,  3.67100e-05,  1.41000e-04],
                           [ 3.32500e-02,  1.66200e-02, -1.84700e-02, -1.20800e-02, -1.67400e-03,  2.43200e-04, -1.81900e-04, -1.17500e-04],
                           [-7.78100e-03,  4.17000e-02,  7.52000e-03, -6.32100e-03, -3.35300e-03, -2.31800e-04,  4.62600e-05, -6.70100e-05]])

# Reaction 7
chebyshev_reaction('O2 + bR (+ M) <=> bQOOHg (+ M)',
                   Tmin=180.0, Tmax=1500.0,
                   Pmin=(0.01, 'atm'), Pmax=(98.692, 'atm'),
                   coeffs=[[ 7.42600e+00, -1.88800e-01, -2.73600e-01,  4.66800e-02, -4.61700e-03, -1.94300e-03,  1.15900e-03, -3.00400e-04],
                           [-1.81400e+00,  2.06000e+00,  3.52100e-02, -6.83600e-02,  1.66100e-02, -4.43300e-04, -1.57400e-03,  6.73700e-04],
                           [-1.80800e+00,  6.54900e-01,  1.97800e-01, -2.40300e-02, -9.19100e-03,  4.46000e-03, -5.31500e-04, -2.93300e-04],
                           [-1.29600e+00, -1.74100e-02,  1.14900e-01,  2.20100e-02, -9.15300e-03, -1.00900e-04,  1.00600e-03, -2.61900e-04],
                           [-7.29000e-01, -1.86600e-01,  1.41300e-02,  2.54900e-02,  2.78700e-04, -2.09900e-03,  4.41100e-04,  1.43400e-04],
                           [-3.37100e-01, -1.57300e-01, -3.45200e-02,  1.12400e-02,  5.05900e-03, -1.00800e-03, -3.60900e-04,  1.44600e-04],
                           [-1.10600e-01, -7.88700e-02, -4.33200e-02, -2.36000e-03,  4.78200e-03,  5.13100e-04, -5.01200e-04, -6.42200e-05],
                           [-3.79500e-03, -1.05600e-02, -2.97000e-02, -1.03100e-02,  1.85200e-03,  1.24300e-03, -1.88200e-04, -1.58900e-04],
                           [ 3.12800e-02,  2.97800e-02, -8.90700e-03, -1.10100e-02, -1.56300e-03,  8.93200e-04,  2.00100e-04, -7.93800e-05],
                           [ 2.93100e-02,  3.81800e-02,  9.25200e-03, -6.43200e-03, -3.52300e-03, -1.64000e-05,  3.37700e-04,  7.57600e-05]])
#  bRO2(+M) <=> bQOOHa(+M)                             1.000e+00 0.000     0.000
#      TCHEB/ 180.000   1500.000 /
#      PCHEB/ 0.010     98.692   /
#      CHEB/ 10 8/
#      CHEB/ -1.012e+01   1.833e+00    -2.244e-01   6.160e-02    -3.225e-03  /
#      CHEB/ -9.770e-03   2.786e-03    2.300e-04    7.406e+00    9.546e-01   /
#      CHEB/ 3.901e-01    -5.537e-02   -1.010e-02   2.479e-03    -1.614e-03  /
#      CHEB/ 8.600e-04    -2.550e+00   1.900e-02    9.578e-02    2.018e-02   /
#      CHEB/ -1.865e-03   4.974e-04    -2.811e-04   -6.921e-05   -1.213e+00  /
#      CHEB/ -2.567e-01   -5.737e-02   -3.864e-04   5.891e-03    3.938e-03   /
#      CHEB/ -2.844e-04   -5.592e-04   -6.297e-01   -1.030e-01   -7.548e-02  /
#      CHEB/ -1.091e-02   3.154e-03    8.622e-04    3.707e-04    -7.335e-05  /
#      CHEB/ -2.369e-01   -4.783e-02   -7.309e-03   -2.267e-03   -2.051e-03  /
#      CHEB/ -7.360e-04   -2.601e-04   6.686e-05    -1.339e-01   -5.807e-03  /
#      CHEB/ 4.092e-03    6.433e-03    8.064e-04    -1.262e-03   -4.233e-04  /
#      CHEB/ 2.329e-05    -6.108e-02   -1.909e-02   4.760e-04    3.267e-03   /
#      CHEB/ 1.434e-03    2.193e-04    -7.351e-05   -2.707e-05   -4.323e-02  /
#      CHEB/ -1.112e-02   -9.991e-03   -1.676e-03   7.462e-04    3.450e-04   /
#      CHEB/ 2.717e-04    5.732e-05    -1.126e-02   -1.294e-02   -5.306e-03  /
#      CHEB/ -3.076e-03   -1.026e-03   2.172e-04    1.550e-04    3.147e-05   /
#  bQOOHg(+M) <=> bQOOHa(+M)                           1.000e+00 0.000     0.000
#      TCHEB/ 180.000   1500.000 /
#      PCHEB/ 0.010     98.692   /
#      CHEB/ 10 8/
#      CHEB/ -1.013e+01   1.527e+00    -1.522e-01   -2.322e-02   -4.869e-03  /
#      CHEB/ -5.522e-04   5.365e-04    -5.845e-04   1.897e+00    1.469e+00   /
#      CHEB/ 4.851e-01    5.166e-02    -2.595e-02   -1.204e-02   2.529e-03   /
#      CHEB/ 2.500e-03    -2.678e+00   -7.661e-02   -6.040e-02   3.948e-02   /
#      CHEB/ 3.098e-02    6.029e-03    -3.923e-03   -1.281e-03   -1.829e+00  /
#      CHEB/ -3.212e-01   -7.651e-02   -1.997e-02   5.130e-03    7.340e-03   /
#      CHEB/ 6.549e-04    -7.390e-04   -1.073e+00   -1.395e-01   1.097e-02   /
#      CHEB/ -1.011e-02   -1.244e-02   -1.837e-03   1.737e-03    4.481e-04   /
#      CHEB/ -4.526e-01   -1.505e-01   2.148e-02    1.776e-02    -4.539e-03  /
#      CHEB/ -4.486e-03   -1.882e-04   6.752e-04    -2.150e-01   -7.366e-02  /
#      CHEB/ -2.366e-02   1.042e-02    5.891e-03    1.935e-04    -9.264e-04  /
#      CHEB/ -4.887e-04   -2.273e-02   -5.854e-02   -3.842e-02   1.522e-03   /
#      CHEB/ 6.301e-03    8.053e-04    -4.740e-04   -8.257e-05   7.450e-03   /
#      CHEB/ 1.181e-02    -2.484e-02   -1.204e-02   3.659e-04    1.573e-03   /
#      CHEB/ 3.652e-04    -7.516e-05   1.228e-02    3.615e-02    -2.240e-04  /
#      CHEB/ -1.209e-02   -4.602e-03   6.980e-04    5.781e-04    2.717e-05   /

# Reaction 8
chebyshev_reaction('bQOOH[O] (+ M) <=> bQOOHa (+ M)',
                   Tmin=180.0, Tmax=1500.0,
                   Pmin=(0.01, 'atm'), Pmax=(98.692, 'atm'),
                   coeffs=[[-6.18300e+00,  2.23200e+00, -1.35600e-01,  8.49600e-02,  1.46300e-02, -8.39700e-03, -5.43900e-04, -6.30800e-04],
                           [-5.63600e+00,  8.56300e-01,  3.53900e-01, -7.25500e-02, -1.01400e-02,  9.73800e-03,  1.04800e-03,  7.35500e-04],
                           [-2.89100e+00, -2.06100e-01,  1.65400e-02, -9.84900e-03, -1.96600e-02, -4.04900e-03,  6.94300e-04,  6.87700e-04],
                           [-1.42300e+00, -2.68600e-01, -5.72700e-02,  1.03400e-03,  9.37500e-04,  1.30300e-04, -8.78000e-04, -5.15200e-04],
                           [-5.56800e-01, -7.67500e-02, -5.69000e-02, -4.16800e-03,  4.61400e-03,  1.23300e-03,  3.36900e-04, -2.72100e-04],
                           [-2.89500e-01, -1.63100e-02,  2.87800e-03,  8.84700e-04, -3.11600e-05,  2.70400e-04,  6.33600e-05,  8.40000e-05],
                           [-1.42300e-01, -1.53700e-03,  1.69700e-03,  3.32000e-03,  5.21100e-04, -6.24100e-04, -8.28900e-05,  1.34600e-04],
                           [-6.95500e-02, -1.89700e-02, -4.09400e-04,  1.80200e-03,  9.15100e-04,  1.56500e-04, -1.12500e-04, -3.69800e-05],
                           [-1.63200e-02, -1.60800e-02, -9.59400e-03, -1.70600e-03,  5.40100e-04,  2.63200e-04,  1.52400e-04, -1.12000e-05],
                           [-2.77000e-02, -1.22000e-02, -4.90300e-03, -2.63400e-03, -1.04600e-03,  7.70700e-05,  1.62500e-04,  5.50900e-05]])

# Reaction 9
chebyshev_reaction('O2 + bR (+ M) <=> bQOOHa (+ M)',
                   Tmin=180.0, Tmax=1500.0,
                   Pmin=(0.01, 'atm'), Pmax=(98.692, 'atm'),
                   coeffs=[[ 3.21700e+00,  2.51500e+00,  2.05000e-01, -2.55100e-02, -8.03700e-02, -2.30400e-02,  7.01500e-03,  4.61700e-03],
                           [-3.31400e+00,  2.31200e-01,  4.99100e-02,  7.49900e-02,  8.13600e-02,  1.66700e-02, -1.01400e-02, -5.85700e-03],
                           [-1.89600e+00, -4.13200e-02, -7.16900e-02, -2.94000e-02, -5.32900e-04,  8.75100e-03,  4.58800e-03,  1.59000e-03],
                           [-1.00900e+00, -5.07500e-02, -1.75500e-02, -2.23200e-02, -1.37600e-02, -2.38000e-03,  2.03800e-04,  5.37500e-04],
                           [-5.06300e-01,  2.22900e-02,  7.76400e-03,  4.00900e-03, -4.07500e-03, -4.25800e-03, -9.79900e-04, -3.01400e-04],
                           [-2.34600e-01,  3.14800e-03,  2.79500e-02,  9.72400e-03,  1.17200e-03, -5.49100e-04, -6.24600e-04, -2.53200e-04],
                           [-1.19600e-01, -1.30000e-02,  1.23000e-02,  1.03400e-02,  3.38300e-03,  3.00000e-04,  9.65900e-06, -7.73400e-06],
                           [-5.88100e-02, -3.29000e-02, -1.75200e-03,  3.38500e-03,  2.45200e-03,  9.67500e-04,  1.91000e-04,  4.76300e-05],
                           [-2.81600e-02, -2.74200e-02, -1.10100e-02, -8.27900e-04,  7.68300e-04,  2.59500e-04,  2.18000e-04,  7.57900e-05],
                           [-3.91000e-03, -1.85500e-02, -8.53100e-03, -3.34500e-03, -1.02300e-03,  8.21300e-05,  1.30800e-04,  4.71900e-05]])
#  bRO2(+M) <=> bQOOH[O](+M)                           1.000e+00 0.000     0.000
#      TCHEB/ 180.000   1500.000 /
#      PCHEB/ 0.010     98.692   /
#      CHEB/ 10 8/
#      CHEB/ -1.008e+01   1.988e+00    -1.590e-02   -6.909e-03   -1.945e-03  /
#      CHEB/ -2.354e-04   3.318e-05    3.523e-07    6.638e+00    5.110e-02   /
#      CHEB/ 1.427e-02    5.049e-03    8.826e-04    -7.584e-05   -3.079e-05  /
#      CHEB/ 7.047e-05    -2.570e+00   -6.991e-03   -1.622e-02   -7.502e-03  /
#      CHEB/ -2.336e-03   -3.855e-04   1.377e-05    1.907e-05    -1.236e+00  /
#      CHEB/ 9.774e-03    -6.082e-04   -8.493e-04   -5.100e-04   -1.793e-04  /
#      CHEB/ -1.928e-05   2.458e-05    -5.106e-01   -8.800e-03   -6.328e-03  /
#      CHEB/ -3.124e-03   -1.061e-03   -1.910e-04   3.023e-05    3.617e-05   /
#      CHEB/ -3.013e-01   -7.979e-03   -1.673e-03   -9.828e-04   -5.062e-04  /
#      CHEB/ -1.913e-04   -3.613e-05   8.979e-06    -1.572e-01   -1.524e-02  /
#      CHEB/ -3.802e-03   -1.526e-03   -5.224e-04   -1.231e-04   -4.725e-06  /
#      CHEB/ 1.067e-05    -7.062e-02   -1.223e-02   -1.982e-03   -6.116e-04  /
#      CHEB/ -2.677e-04   -1.021e-04   -2.045e-05   3.112e-06    -1.229e-02  /
#      CHEB/ -1.069e-02   -2.486e-03   -7.135e-04   -2.433e-04   -7.190e-05  /
#      CHEB/ -1.130e-05   1.639e-06    -2.808e-02   -5.799e-03   -1.587e-03  /
#      CHEB/ -3.188e-04   -8.956e-05   -3.816e-05   -1.589e-05   -3.983e-06  /
#  bQOOHg(+M) <=> bQOOH[O](+M)                         1.000e+00 0.000     0.000
#      TCHEB/ 180.000   1500.000 /
#      PCHEB/ 0.010     98.692   /
#      CHEB/ 10 8/
#      CHEB/ -1.043e+01   9.217e-01    1.629e-01    8.015e-02    1.219e-02   /
#      CHEB/ -6.802e-03   -4.864e-03   -1.298e-03   1.214e+00    6.764e-01   /
#      CHEB/ -1.852e-01   -3.120e-02   1.043e-02    1.314e-02    6.762e-03   /
#      CHEB/ 1.228e-03    -2.490e+00   4.278e-01    -2.692e-02   -3.257e-02  /
#      CHEB/ -1.716e-02   -6.429e-03   -1.010e-03   6.916e-04    -1.809e+00  /