units(length='cm', time='s', quantity='mol', act_energy='kcal/mol')

ideal_gas(name='gas',
          elements="H D T C Ci O Oi N Ne Ar He Si S F Cl Br I X",
          species="""OH             bQOOH[O]       acetone
                     H2O            balkoxyketone  ibutenol
                     trisub_epoxy   bQOOHg         CH2O
                     galkene        O2             bR
                     bQOOHa         bRO2           disub_epoxy
                     HO2""",
          reactions='all',
          initial_state=state(temperature=300.0, pressure=OneAtm))

#-------------------------------------------------------------------------------
# Element data
#-------------------------------------------------------------------------------

element(symbol='Ci', atomic_mass=13.003)
element(symbol='D', atomic_mass=2.014)
element(symbol='Oi', atomic_mass=18.0)
element(symbol='T', atomic_mass=3.016)
element(symbol='X', atomic_mass=195.083)
#-------------------------------------------------------------------------------
# Species data
#-------------------------------------------------------------------------------

species(name='OH',
        atoms='H:1 O:1',
        thermo=(NASA([10.00, 984.14],
                     [ 3.49686242E+00,  1.83973160E-04, -9.97634499E-07,
                       1.56942783E-09, -6.10128175E-13,  3.41673934E+03,
                       1.48093120E+00]),
                NASA([984.14, 3000.00],
                     [ 3.45221464E+00, -2.95124034E-04,  7.39418622E-07,
                      -2.89309866E-10,  3.53041498E-14,  3.45751599E+03,
                       1.85813897E+00])))

species(name='bQOOH[O]',
        atoms='C:4 H:9 O:3',
        thermo=(NASA([10.00, 338.69],
                     [ 3.60915854E+00,  3.39069566E-02,  2.22227265E-04,
                      -8.23527342E-07,  8.56246333E-10, -2.36455742E+04,
                       1.23284605E+01]),
                NASA([338.69, 3000.00],
                     [ 5.03198881E+00,  5.46235886E-02, -3.56935806E-05,
                       1.12371751E-08, -1.35390171E-12, -2.39571569E+04,
                       3.82760723E+00])))

species(name='acetone',
        atoms='C:3 H:6 O:1',
        thermo=(NASA([10.00, 414.35],
                     [ 3.73496166E+00,  3.05743218E-02, -1.26253585E-04,
                       3.66080978E-07, -3.31430437E-10, -2.59047811E+04,
                       8.24936012E+00]),
                NASA([414.35, 3000.00],
                     [ 1.70010292E-01,  3.28431468E-02, -1.80960132E-05,
                       4.82960690E-09, -5.02388538E-13, -2.53333980E+04,
                       2.56372653E+01])))

species(name='H2O',
        atoms='H:2 O:1',
        thermo=(NASA([10.00, 773.84],
                     [ 4.00473541E+00, -2.39729134E-04,  8.11862955E-07,
                       1.47891862E-09, -1.19783539E-12, -3.03533807E+04,
                      -9.96254147E-02]),
                NASA([773.84, 3000.00],
                     [ 3.52133374E+00,  1.05377009E-03,  6.40722099E-07,
                      -3.86240235E-10,  5.49243294E-14, -3.02424794E+04,
                       2.34173094E+00])))

species(name='balkoxyketone',
        atoms='C:4 H:7 O:2',
        thermo=(NASA([10.00, 269.93],
                     [ 3.81931151E+00,  1.68519318E-02,  2.42742224E-04,
                      -9.64821161E-07,  1.18509335E-09, -2.04756493E+04,
                       1.20521854E+01]),
                NASA([269.93, 3000.00],
                     [ 3.57555944E+00,  4.28868089E-02, -2.65390705E-05,
                       7.99659117E-09, -9.32983470E-13, -2.05441774E+04,
                       1.13957990E+01])))

species(name='ibutenol',
        atoms='C:4 H:8 O:1',
        thermo=(NASA([10.00, 135.97],
                     [ 3.95714996E+00,  5.72646980E-03,  4.63611760E-04,
                      -3.04137514E-06,  6.85019471E-09, -2.59213119E+04,
                       8.21931848E+00]),
                NASA([135.97, 3000.00],
                     [ 3.32467612E+00,  3.69033556E-02, -1.89960416E-05,
                       4.73417677E-09, -4.59705291E-13, -2.59157332E+04,
                       9.58133237E+00])))

species(name='trisub_epoxy',
        atoms='C:4 H:8 O:2',
        thermo=(NASA([10.00, 209.19],
                     [ 3.75295042E+00,  2.37546930E-02,  1.26610110E-04,
                      -4.78364365E-07,  5.79468168E-10, -3.92619131E+04,
                       1.12739684E+01]),
                NASA([209.19, 3000.00],
                     [ 2.64185254E+00,  4.50006531E-02, -2.57361066E-05,
                       7.15266054E-09, -7.72980731E-13, -3.92154275E+04,
                       1.48960343E+01])))

species(name='bQOOHg',
        atoms='C:4 H:9 O:3',
        thermo=(NASA([10.00, 441.09],
                     [ 3.56595280E+00,  3.36073467E-02,  2.03462772E-04,
                      -5.98977617E-07,  4.83271168E-10, -2.41107711E+04,
                       1.33537891E+01]),
                NASA([441.09, 3000.00],
                     [ 6.09031192E+00,  5.80517622E-02, -4.06392697E-05,
                       1.32574026E-08, -1.62501077E-12, -2.47939565E+04,
                      -1.97849715E+00])))

species(name='CH2O',
        atoms='C:1 H:2 O:1',
        thermo=(NASA([10.00, 601.31],
                     [ 4.03190845E+00, -1.93233367E-03,  8.89743345E-06,
                       2.98105926E-09, -7.90813886E-12, -1.42276270E+04,
                       3.47574660E+00]),
                NASA([601.31, 3000.00],
                     [ 1.40134195E+00,  9.48858016E-03, -4.43088317E-06,
                       9.48452194E-10, -7.43790219E-14, -1.38013869E+04,
                       1.57423780E+01])))

species(name='galkene',
        atoms='C:4 H:8 O:1',
        thermo=(NASA([10.00, 383.47],
                     [ 3.84035604E+00,  1.20378740E-02,  1.87486319E-04,
                      -5.44759148E-07,  4.80711015E-10, -1.94465950E+04,
                       1.02570291E+01]),
                NASA([383.47, 3000.00],
                     [ 4.00413385E+00,  3.79025144E-02, -2.15435710E-05,
                       6.15213311E-09, -6.97446345E-13, -1.96618844E+04,
                       6.98052628E+00])))

species(name='O2',
        atoms='O:2',
        thermo=(NASA([10.00, 605.96],
                     [ 3.50743498E+00, -4.43860349E-04,  1.45938058E-06,
                       1.61509333E-09, -2.32050052E-12, -9.24756224E+02,
                       4.72183634E+00]),
                NASA([605.96, 3000.00],
                     [ 2.87462882E+00,  2.17840991E-03, -1.18262921E-06,
                       2.86910493E-10, -2.53297146E-14, -8.19517838E+02,
                       7.69331810E+00])))

species(name='bR',
        atoms='C:4 H:9 O:1',
        thermo=(NASA([10.00, 483.43],
                     [ 3.38164846E+00,  5.97142637E-02, -1.58320095E-04,
                       3.04908893E-07, -2.13091806E-10, -1.04051098E+04,
                       1.09226843E+01]),
                NASA([483.43, 3000.00],
                     [ 2.33428824E+00,  4.22094427E-02, -2.28029290E-05,
                       6.04614564E-09, -6.30240159E-13, -9.99802781E+03,
                       1.83772893E+01])))

species(name='bQOOHa',
        atoms='C:4 H:9 O:3',
        thermo=(NASA([10.00, 390.53],
                     [ 3.54969236E+00,  3.76592474E-02,  1.76622653E-04,
                      -5.98063750E-07,  5.45069236E-10, -2.65945628E+04,
                       1.31518761E+01]),
                NASA([390.53, 3000.00],
                     [ 5.33564209E+00,  5.64935715E-02, -3.83214298E-05,
                       1.22990604E-08, -1.49549987E-12, -2.70171728E+04,
                       2.59015836E+00])))

species(name='bRO2',
        atoms='C:4 H:9 O:3',
        thermo=(NASA([10.00, 461.39],
                     [ 3.53964713E+00,  3.88723795E-02,  9.57420148E-05,
                      -2.80380499E-07,  2.09647462E-10, -3.32141191E+04,
                       1.18803618E+01]),
                NASA([461.39, 3000.00],
                     [ 3.47201723E+00,  6.00510247E-02, -4.00567321E-05,
                       1.25663813E-08, -1.49496682E-12, -3.34270659E+04,
                       9.77903975E+00])))

species(name='disub_epoxy',
        atoms='C:4 H:8 O:2',
        thermo=(NASA([10.00, 549.41],
                     [ 3.89863211E+00,  5.97532637E-03,  1.66685676E-04,
                      -3.10743768E-07,  1.78330192E-10, -3.57688693E+04,
                       1.13847308E+01]),
                NASA([549.41, 3000.00],
                     [-6.40277648E-01,  6.05960003E-02, -4.13427220E-05,
                       1.31555461E-08, -1.57685017E-12, -3.55957524E+04,
                       2.76005436E+01])))

species(name='HO2',
        atoms='H:1 O:2',
        thermo=(NASA([10.00, 891.11],
                     [ 4.02887004E+00, -1.75769289E-03,  1.08726004E-05,
                      -1.13812972E-08,  3.90113097E-12,  4.95165001E+02,
                       4.69302008E+00]),
                NASA([891.11, 3000.00],
                     [ 3.06571044E+00,  4.28505005E-03, -2.19325920E-06,
                       5.58882699E-10, -5.61246669E-14,  5.98557610E+02,
                       8.84564156E+00])))

#-------------------------------------------------------------------------------
# Reaction data
#-------------------------------------------------------------------------------

# Reaction 1
chebyshev_reaction('bQOOHg (+ M) <=> bRO2 (+ M)',
                   Tmin=180.0, Tmax=1500.0,
                   Pmin=(0.01, 'atm'), Pmax=(98.692, 'atm'),
                   coeffs=[[-1.74800e-01,  7.03300e-01, -4.80300e-02,  5.02900e-04,  5.99500e-03,  4.91700e-04, -8.50200e-04, -2.58500e-05],
                           [-1.01500e+00,  1.09900e+00, -5.21300e-02,  1.53200e-03,  9.52400e-03,  6.91000e-04, -1.25300e-03, -2.01200e-05],
                           [-2.92200e+00,  4.34700e-01,  1.67100e-02,  8.83600e-03,  3.30700e-03,  1.37200e-04, -3.25800e-04,  6.73100e-05],
                           [-1.93400e+00, -1.10800e-01,  2.63800e-02,  1.90000e-02, -8.31100e-04, -6.11400e-04,  3.85800e-04,  1.49300e-04],
                           [-1.16400e+00, -2.91000e-01, -1.81400e-02,  1.67900e-02,  4.68000e-04, -8.51300e-04,  3.99200e-04,  1.55500e-04],
                           [-5.79100e-01, -1.90900e-01, -5.35900e-02, -1.63300e-04,  2.99200e-03,  6.24100e-05, -2.04300e-05,  4.23300e-05],
                           [-2.11100e-01, -2.57200e-02, -4.44500e-02, -1.60700e-02,  1.63700e-03,  1.12900e-03, -1.74700e-04, -9.48300e-05],
                           [-5.42000e-02,  6.42900e-02, -8.54700e-03, -1.69200e-02, -2.46700e-03,  8.00200e-04,  8.95200e-05, -7.13300e-05],
                           [-9.22200e-03,  6.35700e-02,  1.88400e-02, -5.12100e-03, -4.40500e-03, -7.40900e-04,  2.57500e-04,  1.15800e-04],
                           [ 7.67800e-03,  2.25500e-02,  2.14800e-02,  6.64300e-03, -2.14400e-03, -1.72300e-03, -7.74800e-06,  2.26800e-04]])

# Reaction 2
chebyshev_reaction('bQOOHa (+ M) <=> bRO2 (+ M)',
                   Tmin=180.0, Tmax=1500.0,
                   Pmin=(0.01, 'atm'), Pmax=(98.692, 'atm'),
                   coeffs=[[-4.77300e+00,  3.31100e+00, -3.83700e-01,  3.12200e-02,  4.71200e-02, -1.91000e-02, -4.73100e-03,  3.41400e-03],
                           [-1.40500e+00, -2.34000e-01,  8.07900e-01,  2.90000e-02, -5.38200e-02,  8.85100e-03, -2.91100e-04, -2.96300e-03],
                           [-2.52400e+00, -9.61900e-02,  1.65100e-02,  1.54700e-02, -8.33700e-03, -2.96200e-04,  2.05200e-03, -2.89900e-04],
                           [-1.19200e+00, -1.66400e-01, -8.81300e-02, -2.17400e-02, -7.86600e-03,  1.54600e-05,  2.34000e-03,  4.50300e-04],
                           [-6.31600e-01, -5.58000e-02, -6.08700e-02, -1.49600e-02,  2.73500e-03,  6.26700e-04, -1.15400e-04,  2.88100e-04],
                           [-3.07100e-01, -6.86900e-02, -2.46400e-02,  4.41600e-03,  5.43400e-03,  1.28400e-03, -1.95300e-04, -2.00600e-04],
                           [-1.73300e-01, -5.30100e-02, -1.46400e-02,  4.62100e-03,  4.35800e-03,  6.72800e-04, -2.33900e-04, -1.60600e-04],
                           [-7.04200e-02, -4.50500e-02, -5.88600e-03,  2.99900e-03,  3.50400e-04, -3.39100e-04, -1.86000e-04, -1.16000e-04],
                           [-8.04900e-02,  3.40500e-02, -9.20500e-03, -5.56800e-03,  2.46100e-03, -2.63700e-04, -9.24600e-04,  9.91300e-05],
                           [ 5.09400e-02, -5.31900e-02,  1.00500e-02,  6.26400e-03, -3.70000e-03, -6.77400e-04,  6.77100e-04, -1.15600e-04]])

# Reaction 3
chebyshev_reaction('bQOOH[O] (+ M) <=> bRO2 (+ M)',
                   Tmin=180.0, Tmax=1500.0,
                   Pmin=(0.01, 'atm'), Pmax=(98.692, 'atm'),
                   coeffs=[[ 5.15600e+00,  1.95300e+00, -4.30500e-02, -1.64900e-02, -4.78800e-03, -7.92400e-04, -6.87700e-05,  8.02400e-05],
                           [-5.85100e+00,  8.41200e-02,  1.26500e-02,  3.46800e-03,  8.75800e-04,  1.54800e-03,  8.43900e-04,  2.13500e-04],
                           [-3.09000e+00, -3.44700e-02, -4.41000e-02, -1.71300e-02, -4.65100e-03, -1.88200e-04,  3.41000e-04,  2.34100e-04],
                           [-1.54100e+00,  2.51900e-03, -1.51900e-02, -6.60600e-03, -1.86100e-03,  8.48600e-05,  1.96000e-04,  5.14800e-05],
                           [-7.90800e-01, -7.39700e-03, -1.10800e-02, -4.52800e-03, -7.21200e-04,  4.04200e-04,  3.19700e-04,  9.72200e-05],
                           [-4.75600e-01, -1.34800e-02, -6.64400e-03, -2.66700e-03, -3.70700e-04,  1.18600e-04,  1.52900e-04,  5.57500e-05],
                           [-2.93700e-01, -9.18600e-03, -8.82500e-04, -8.45500e-04, -7.38000e-05,  2.67900e-05,  5.24200e-05, -6.17600e-06],
                           [-1.02400e-01, -1.97800e-02, -4.10200e-03, -8.68000e-04,  1.51300e-04,  1.34200e-06,  6.09000e-06,  1.57900e-05],
                           [-7.11700e-02,  1.37200e-03,  4.10300e-03,  9.78500e-04,  8.74400e-05, -3.92800e-05, -1.55400e-05, -3.08200e-05],
                           [ 1.40600e-02, -1.16400e-02, -3.21800e-03, -2.34700e-04,  1.01300e-04, -6.21600e-05, -3.98800e-05,  2.10800e-05]])

# Reaction 4
chebyshev_reaction('O2 + bR (+ M) <=> bRO2 (+ M)',
                   Tmin=180.0, Tmax=1500.0,
                   Pmin=(0.01, 'atm'), Pmax=(98.692, 'atm'),
                   coeffs=[[ 1.61600e+01,  8.99200e-01, -8.68700e-02,  7.17500e-03, -7.81200e-04,  4.17600e-04, -1.73600e-04,  3.77100e-05],
                           [-3.31300e+00,  9.16500e-01,  2.92600e-02, -8.46700e-03, -1.07900e-03,  2.90000e-04,  3.12700e-05, -1.01400e-05],
                           [-2.00600e+00,  2.63700e-01,  4.57100e-02,  3.06600e-03, -5.19400e-04, -2.40700e-04,  1.80700e-05,  1.57600e-06],
                           [-1.17900e+00,  2.96400e-02,  1.43900e-02,  2.74700e-03,  7.55100e-04, -7.65100e-05,  2.15200e-07, -1.11500e-05],
                           [-6.72000e-01, -2.19100e-02,  7.56400e-04, -1.35000e-04,  4.93800e-04, -8.51300e-06,  3.22300e-05, -5.16900e-06],
                           [-3.73300e-01, -2.93400e-02, -1.57200e-03, -6.07900e-04,  1.47900e-04, -4.64700e-05,  1.73800e-05,  1.17200e-06],
                           [-1.95300e-01, -2.70000e-02, -1.99900e-03, -5.15700e-04,  1.45700e-04, -5.22500e-05,  7.12700e-06, -1.42400e-06],
                           [-8.75500e-02, -2.11400e-02, -2.33200e-03, -3.91200e-04,  8.25300e-05, -1.70300e-05,  3.20100e-06, -7.59500e-07],
                           [-2.48700e-02, -1.29200e-02, -2.27300e-03, -3.43700e-04,  1.28000e-05, -1.77800e-06,  1.38000e-06,  2.00900e-07],
                           [ 7.84500e-03, -5.01900e-03, -1.69100e-03, -2.22900e-04, -5.66500e-05,  6.91400e-06, -2.32700e-06,  7.38700e-07]])
#  bRO2(+M) <=> bQOOHg(+M)                             1.000e+00 0.000     0.000
#      TCHEB/ 180.000   1500.000 /
#      PCHEB/ 0.010     98.692   /
#      CHEB/ 10 8/
#      CHEB/ -1.152e+01   7.033e-01    -4.803e-02   5.029e-04    5.995e-03   /
#      CHEB/ 4.917e-04    -8.502e-04   -2.585e-05   9.042e+00    1.099e+00   /
#      CHEB/ -5.213e-02   1.532e-03    9.524e-03    6.910e-04    -1.253e-03  /
#      CHEB/ -2.012e-05   -2.776e+00   4.347e-01    1.671e-02    8.836e-03   /
#      CHEB/ 3.307e-03    1.372e-04    -3.258e-04   6.731e-05    -1.897e+00  /
#      CHEB/ -1.108e-01   2.638e-02    1.900e-02    -8.311e-04   -6.114e-04  /
#      CHEB/ 3.858e-04    1.493e-04    -1.158e+00   -2.910e-01   -1.814e-02  /
#      CHEB/ 1.679e-02    4.680e-04    -8.513e-04   3.992e-04    1.555e-04   /
#      CHEB/ -5.792e-01   -1.909e-01   -5.359e-02   -1.633e-04   2.992e-03   /
#      CHEB/ 6.241e-05    -2.043e-05   4.233e-05    -2.117e-01   -2.572e-02  /
#      CHEB/ -4.445e-02   -1.607e-02   1.637e-03    1.129e-03    -1.747e-04  /
#      CHEB/ -9.483e-05   -5.465e-02   6.429e-02    -8.547e-03   -1.692e-02  /
#      CHEB/ -2.467e-03   8.002e-04    8.952e-05    -7.133e-05   -9.546e-03  /
#      CHEB/ 6.357e-02    1.884e-02    -5.121e-03   -4.405e-03   -7.409e-04  /
#      CHEB/ 2.575e-04    1.158e-04    7.491e-03    2.255e-02    2.148e-02   /
#      CHEB/ 6.643e-03    -2.144e-03   -1.723e-03   -7.748e-06   2.268e-04   /

# Reaction 5
chebyshev_reaction('bQOOHa (+ M) <=> bQOOHg (+ M)',
                   Tmin=180.0, Tmax=1500.0,
                   Pmin=(0.01, 'atm'), Pmax=(98.692, 'atm'),
                   coeffs=[[-1.92600e+01,  3.16600e+00,  1.24000e-03,  4.60400e-02, -5.02500e-03, -3.84700e-02, -9.60400e-04,  9.59700e-03],
                           [ 2.27100e+00,  2.93200e-02,  4.98900e-01,  7.35800e-02,  2.82200e-02,  3.00200e-02, -1.02000e-02, -1.24700e-02],
                           [-2.81400e+00, -5.43300e-02, -1.45700e-01, -2.96500e-02, -1.37400e-02,  2.16700e-03,  6.03800e-03,  2.57800e-03],
                           [-1.74200e+00, -3.23300e-01, -8.94300e-02, -2.27600e-02, -1.85000e-02, -1.70900e-03,  5.25100e-03,  2.29300e-03],
                           [-9.66200e-01, -2.65700e-01, -2.41900e-02,  2.30400e-02,  5.28600e-03, -3.06800e-03, -1.74500e-03, -2.21000e-04],
                           [-4.20700e-01, -1.69600e-01, -2.76300e-02,  2.26400e-02,  1.08300e-02, -7.85800e-04, -2.27000e-03, -9.40000e-04],
                           [-1.26100e-01, -4.05900e-02, -4.28600e-02, -6.94100e-03,  6.66900e-03,  2.03400e-03, -3.77900e-04, -3.43000e-04],
                           [-1.17600e-02,  3.02200e-02, -1.45000e-02, -1.56900e-02, -2.40200e-03,  1.44300e-03,  7.59500e-04,  1.41600e-04],
                           [-1.45600e-02,  7.99500e-02,  2.97500e-03, -1.09600e-02, -1.51100e-03, -5.74900e-04, -2.80700e-04,  3.96800e-04],
                           [ 3.62200e-02, -2.15900e-02,  2.96200e-02,  9.81500e-03, -6.49200e-03, -2.07300e-03,  8.35000e-04,  1.09500e-04]])

# Reaction 6
chebyshev_reaction('bQOOH[O] (+ M) <=> bQOOHg (+ M)',
                   Tmin=180.0, Tmax=1500.0,
                   Pmin=(0.01, 'atm'), Pmax=(98.692, 'atm'),
                   coeffs=[[-8.88600e+00,  1.34100e+00,  2.02500e-01,  1.64300e-02, -3.75600e-02, -2.19200e-02, -1.97300e-03,  3.74900e-03],
                           [-2.25300e+00,  5.77000e-01, -2.41200e-01,  3.60700e-02,  6.98300e-02,  2.07500e-02, -5.94500e-03, -6.56700e-03],
                           [-3.46400e+00,  2.71400e-01, -1.09200e-01, -5.07000e-02, -9.39600e-03,  5.56400e-03,  5.87400e-03,  2.47800e-03],
                           [-2.12900e+00, -1.62600e-01, -2.60200e-02, -1.51500e-02, -1.18900e-02,  6.09300e-05,  3.23000e-03,  1.59200e-03],
                           [-1.11600e+00, -2.77200e-01, -1.44600e-02,  1.48900e-02, -2.85200e-03, -3.56200e-03, -5.17000e-04,  3.55500e-04],
                           [-5.28800e-01, -1.36800e-01, -2.83500e-02,  9.41500e-03,  3.92700e-03, -1.97100e-03, -1.65300e-03, -4.64300e-04],
                           [-1.95300e-01,  8.02700e-03, -2.76700e-02, -6.83900e-03,  4.57100e-03,  1.07900e-03, -8.61800e-04, -5.73000e-04],
                           [-1.39200e-02,  6.98500e-02, -9.15500e-03, -1.58400e-02, -5.84500e-04,  2.10800e-03,  3.93100e-04, -2.41100e-04],
                           [-1.82200e-02,  5.83300e-02,  1.84900e-02, -3.59900e-03, -3.63600e-03, -3.95200e-04,  6.10900e-04,  3.26600e-04],
                           [ 8.68500e-03,  1.93500e-02,  1.49600e-02,  1.92700e-03, -2.87300e-03, -1.01900e-03,  3.63600e-04,  2.74100e-04]])

# Reaction 7
chebyshev_reaction('O2 + bR (+ M) <=> bQOOHg (+ M)',
                   Tmin=180.0, Tmax=1500.0,
                   Pmin=(0.01, 'atm'), Pmax=(98.692, 'atm'),
                   coeffs=[[ 7.29000e+00,  1.10800e+00, -5.09100e-01, -9.42600e-03,  5.56900e-02, -1.43600e-02, -5.76900e-03,  4.57200e-03],
                           [-3.64300e+00,  1.53700e+00,  4.20300e-01, -8.30200e-02, -5.01100e-02,  2.60800e-02,  2.43400e-03, -6.11100e-03],
                           [-2.48600e+00,  1.81800e-01,  2.44700e-01,  3.12700e-02, -3.03100e-02, -3.76400e-03,  6.11500e-03,  4.76700e-05],
                           [-1.38800e+00, -2.23500e-01,  5.88500e-02,  4.51100e-02, -4.58900e-03, -7.87500e-03,  1.16300e-03,  1.48600e-03],
                           [-6.05600e-01, -2.14600e-01, -3.85400e-02,  2.36800e-02,  8.52900e-03, -3.50400e-03, -1.54800e-03,  5.91700e-04],
                           [-1.80900e-01, -9.75500e-02, -6.18100e-02, -6.98600e-04,  9.23500e-03,  9.21500e-04, -1.37900e-03, -3.03900e-04],
                           [-4.51400e-03,  1.00200e-02, -3.82600e-02, -1.51300e-02,  3.45100e-03,  2.57000e-03, -3.01900e-04, -4.56400e-04],
                           [ 3.43200e-02,  5.50500e-02, -9.91300e-04, -1.33300e-02, -2.97100e-03,  1.45800e-03,  6.01100e-04, -1.67200e-04],
                           [ 1.43000e-02,  4.66900e-02,  2.18400e-02, -3.13200e-03, -4.66500e-03, -4.73800e-04,  5.57000e-04,  2.10600e-04],
                           [-3.99400e-03,  9.12100e-03,  2.15200e-02,  7.13600e-03, -2.46200e-03, -1.58400e-03,  1.87900e-04,  2.95000e-04]])
#  bRO2(+M) <=> bQOOHa(+M)                             1.000e+00 0.000     0.000
#      TCHEB/ 180.000   1500.000 /
#      PCHEB/ 0.010     98.692   /
#      CHEB/ 10 8/
#      CHEB/ -1.287e+01   3.311e+00    -3.837e-01   3.122e-02    4.712e-02   /
#      CHEB/ -1.910e-02   -4.731e-03   3.414e-03    5.868e+00    -2.340e-01  /
#      CHEB/ 8.079e-01    2.900e-02    -5.382e-02   8.851e-03    -2.911e-04  /
#      CHEB/ -2.963e-03   -2.469e+00   -9.619e-02   1.651e-02    1.547e-02   /
#      CHEB/ -8.337e-03   -2.962e-04   2.052e-03    -2.899e-04   -1.191e+00  /
#      CHEB/ -1.664e-01   -8.813e-02   -2.174e-02   -7.866e-03   1.546e-05   /
#      CHEB/ 2.340e-03    4.503e-04    -6.364e-01   -5.580e-02   -6.087e-02  /
#      CHEB/ -1.496e-02   2.735e-03    6.267e-04    -1.154e-04   2.881e-04   /
#      CHEB/ -3.098e-01   -6.869e-02   -2.464e-02   4.416e-03    5.434e-03   /
#      CHEB/ 1.284e-03    -1.953e-04   -2.006e-04   -1.747e-01   -5.301e-02  /
#      CHEB/ -1.464e-02   4.621e-03    4.358e-03    6.728e-04    -2.339e-04  /
#      CHEB/ -1.606e-04   -7.115e-02   -4.505e-02   -5.886e-03   2.999e-03   /
#      CHEB/ 3.504e-04    -3.391e-04   -1.860e-04   -1.160e-04   -8.084e-02  /
#      CHEB/ 3.405e-02    -9.205e-03   -5.568e-03   2.461e-03    -2.637e-04  /
#      CHEB/ -9.246e-04   9.913e-05    5.082e-02    -5.319e-02   1.005e-02   /
#      CHEB/ 6.264e-03    -3.700e-03   -6.774e-04   6.771e-04    -1.156e-04  /
#  bQOOHg(+M) <=> bQOOHa(+M)                           1.000e+00 0.000     0.000
#      TCHEB/ 180.000   1500.000 /
#      PCHEB/ 0.010     98.692   /
#      CHEB/ 10 8/
#      CHEB/ -1.601e+01   3.166e+00    1.240e-03    4.604e-02    -5.025e-03  /
#      CHEB/ -3.847e-02   -9.604e-04   9.597e-03    -5.134e-01   2.932e-02   /
#      CHEB/ 4.989e-01    7.358e-02    2.822e-02    3.002e-02    -1.020e-02  /
#      CHEB/ -1.247e-02   -2.905e+00   -5.433e-02   -1.457e-01   -2.965e-02  /
#      CHEB/ -1.374e-02   2.167e-03    6.038e-03    2.578e-03    -1.778e+00  /
#      CHEB/ -3.233e-01   -8.943e-02   -2.276e-02   -1.850e-02   -1.709e-03  /
#      CHEB/ 5.251e-03    2.293e-03    -9.768e-01   -2.657e-01   -2.419e-02  /
#      CHEB/ 2.304e-02    5.286e-03    -3.068e-03   -1.745e-03   -2.210e-04  /
#      CHEB/ -4.233e-01   -1.696e-01   -2.763e-02   2.264e-02    1.083e-02   /
#      CHEB/ -7.858e-04   -2.270e-03   -9.400e-04   -1.269e-01   -4.059e-02  /
#      CHEB/ -4.286e-02   -6.941e-03   6.669e-03    2.034e-03    -3.779e-04  /
#      CHEB/ -3.430e-04   -1.203e-02   3.022e-02    -1.450e-02   -1.569e-02  /
#      CHEB/ -2.402e-03   1.443e-03    7.595e-04    1.416e-04    -1.458e-02  /
#      CHEB/ 7.995e-02    2.975e-03    -1.096e-02   -1.511e-03   -5.749e-04  /
#      CHEB/ -2.807e-04   3.968e-04    3.628e-02    -2.159e-02   2.962e-02   /
#      CHEB/ 9.815e-03    -6.492e-03   -2.073e-03   8.350e-04    1.095e-04   /

# Reaction 8
chebyshev_reaction('bQOOH[O] (+ M) <=> bQOOHa (+ M)',
                   Tmin=180.0, Tmax=1500.0,
                   Pmin=(0.01, 'atm'), Pmax=(98.692, 'atm'),
                   coeffs=[[-1.09700e+01,  3.86300e+00, -1.82800e-01,  4.92700e-02,  3.17000e-02, -2.59300e-02, -6.90300e-03,  2.53300e-03],
                           [-5.06100e+00, -4.40400e-01,  7.09700e-01,  2.11300e-02, -3.81100e-02,  1.93600e-02,  2.43500e-03, -3.27900e-03],
                           [-3.04000e+00, -4.67500e-01, -1.60700e-01, -3.45200e-02, -2.00300e-02, -1.51100e-03,  4.62600e-03,  1.85600e-03],
                           [-1.38400e+00, -2.16900e-01, -1.12700e-01, -2.69700e-02, -1.15200e-02, -3.28100e-03,  1.31000e-03,  8.59000e-04],
                           [-6.20000e-01, -2.14200e-02, -4.02000e-02, -4.18000e-03,  5.62400e-03,  1.40000e-05, -9.57900e-04,  2.10100e-05],
                           [-3.36500e-01, -2.45500e-02, -6.07400e-03,  8.45900e-03,  6.47200e-03,  1.85300e-03, -2.30200e-04, -5.20500e-04],
                           [-2.09800e-01, -2.61400e-02, -4.21100e-03,  5.03800e-03,  4.05500e-03,  9.05900e-04, -1.05400e-04, -2.35900e-04],
                           [-5.42000e-02, -4.47100e-02, -5.33200e-03,  1.31000e-03, -5.20600e-04, -1.62200e-04,  1.83200e-04, -1.06200e-05],
                           [-6.95500e-02,  2.38200e-02, -7.68000e-03, -2.64300e-03,  3.15400e-03, -6.80300e-04, -1.04900e-03,  2.61000e-04],
                           [ 4.30200e-02, -5.08000e-02,  7.38900e-03,  3.52100e-03, -4.12300e-03, -2.44400e-04,  8.21500e-04, -1.77900e-04]])

# Reaction 9
chebyshev_reaction('O2 + bR (+ M) <=> bQOOHa (+ M)',
                   Tmin=180.0, Tmax=1500.0,
                   Pmin=(0.01, 'atm'), Pmax=(98.692, 'atm'),
                   coeffs=[[ 5.30600e-01,  3.74500e+00,  2.44900e-01,  2.17500e-01,  5.41500e-02, -3.07600e-02, -1.18600e-02,  6.15200e-04],
                           [-3.07600e+00, -6.22000e-01,  2.27100e-01, -1.41200e-01, -6.33300e-02,  2.10300e-02,  6.54500e-03, -4.44000e-04],
                           [-1.98500e+00, -2.04700e-01, -1.04700e-01, -2.68700e-02, -1.32400e-02,  2.29900e-03,  4.94000e-03,  1.00900e-03],
                           [-9.72400e-01, -8.07100e-02, -3.15700e-02, -7.07600e-04, -4.07800e-03, -2.10200e-03,  7.85300e-04, -2.05300e-05],
                           [-4.86800e-01,  9.82700e-03, -3.33400e-03,  8.18700e-03,  7.01700e-03, -1.25500e-03, -1.65300e-03, -2.39300e-04],
                           [-2.35800e-01, -3.25800e-02,  4.56700e-03,  1.25000e-02,  5.90100e-03,  3.90800e-04, -6.51900e-04, -3.18800e-04],
                           [-1.16600e-01, -4.52400e-02, -5.46700e-03,  5.52200e-03,  3.82800e-03,  4.79100e-04, -1.10300e-04, -4.14400e-05],
                           [-4.52300e-02, -4.96200e-02, -6.25600e-03,  1.64600e-03,  8.27600e-05,  1.00500e-04,  2.06600e-04,  4.19300e-05],
                           [-2.88700e-02,  1.00600e-02, -1.48500e-02, -4.59200e-03,  3.26400e-03, -1.11700e-04, -8.64500e-04,  1.54600e-04],
                           [ 3.62200e-02, -4.63800e-02,  7.59200e-03,  3.66400e-03, -4.01000e-03, -2.19900e-04,  8.31600e-04, -1.29600e-04]])
#  bRO2(+M) <=> bQOOH[O](+M)                           1.000e+00 0.000     0.000
#      TCHEB/ 180.000   1500.000 /
#      PCHEB/ 0.010     98.692   /
#      CHEB/ 10 8/
#      CHEB/ -7.334e+00   1.953e+00    -4.305e-02   -1.649e-02   -4.788e-03  /
#      CHEB/ -7.924e-04   -6.877e-05   8.024e-05    4.429e+00    8.412e-02   /
#      CHEB/ 1.265e-02    3.468e-03    8.758e-04    1.548e-03    8.439e-04   /
#      CHEB/ 2.135e-04    -3.096e+00   -3.447e-02   -4.410e-02   -1.713e-02  /
#      CHEB/ -4.651e-03   -1.882e-04   3.410e-04    2.341e-04    -1.562e+00  /
#      CHEB/ 2.519e-03    -1.519e-02   -6.606e-03   -1.861e-03   8.486e-05   /
#      CHEB/ 1.960e-04    5.148e-05    -8.016e-01   -7.397e-03   -1.108e-02  /
#      CHEB/ -4.528e-03   -7.212e-04   4.042e-04    3.197e-04    9.722e-05   /
#      CHEB/ -4.796e-01   -1.348e-02   -6.644e-03   -2.667e-03   -3.707e-04  /
#      CHEB/ 1.186e-04    1.529e-04    5.575e-05    -2.952e-01   -9.186e-03  /
#      CHEB/ -8.825e-04   -8.455e-04   -7.380e-05   2.679e-05    5.242e-05   /
#      CHEB/ -6.176e-06   -1.030e-01   -1.978e-02   -4.102e-03   -8.680e-04  /
#      CHEB/ 1.513e-04    1.342e-06    6.090e-06    1.579e-05    -7.135e-02  /
#      CHEB/ 1.372e-03    4.103e-03    9.785e-04    8.744e-05    -3.928e-05  /
#      CHEB/ -1.554e-05   -3.082e-05   1.407e-02    -1.164e-02   -3.218e-03  /
#      CHEB/ -2.347e-04   1.013e-04    -6.216e-05   -3.988e-05   2.108e-05   /
#  bQOOHg(+M) <=> bQOOH[O](+M)                         1.000e+00 0.000     0.000
#      TCHEB/ 180.000   1500.000 /
#      PCHEB/ 0.010     98.692   /
#      CHEB/ 10 8/
#      CHEB/ -1.003e+01   1.341e+00    2.025e-01    1.643e-02    -3.756e-02  /
#      CHEB/ -2.192e-02   -1.973e-03   3.749e-03    -2.030e+00   5.770e-01   /
#      CHEB/ -2.412e-01   3.607e-02    6.983e-02    2.075e-02    -5.945e-03  /
#      CHEB/ -6.567e-03   -3.615e+00   2.714e-01    -1.092e-01   -5.070e-02  /
#      CHEB/ -9.396e-03   5.564e-03    5.874e-03    2.478e-03    -2.187e+00  /