units(length='cm', time='s', quantity='mol', act_energy='kcal/mol')

ideal_gas(name='gas',
          elements="H D T C Ci O Oi N Ne Ar He Si S F Cl Br I X",
          species="""propene3ol       OH               disub_c4ether
                     H2O              disub_epoxy      gQOOHa
                     propene1ol       gQOOHb           ipropylOOH
                     galdoxy          galkene          CH2O
                     O2               gRO2             gQOOHg
                     gR               galdol           monosub_c4ether
                     HO2              gQOOH[O]""",
          reactions='all',
          initial_state=state(temperature=300.0, pressure=OneAtm))

#-------------------------------------------------------------------------------
# Element data
#-------------------------------------------------------------------------------

element(symbol='Ci', atomic_mass=13.003)
element(symbol='D', atomic_mass=2.014)
element(symbol='Oi', atomic_mass=18.0)
element(symbol='T', atomic_mass=3.016)
element(symbol='X', atomic_mass=195.083)
#-------------------------------------------------------------------------------
# Species data
#-------------------------------------------------------------------------------

species(name='propene3ol',
        atoms='C:3 H:6 O:1',
        thermo=(NASA([10.00, 444.81],
                     [ 3.92769709E+00,  4.89977303E-03,  1.13094874E-04,
                      -2.59008187E-07,  1.86205760E-10, -1.63755283E+04,
                       9.90805416E+00]),
                NASA([444.81, 3000.00],
                     [ 2.61720343E+00,  3.01777872E-02, -1.76511625E-05,
                       5.14864061E-09, -5.91153761E-13, -1.63924288E+04,
                       1.36683107E+01])))

species(name='OH',
        atoms='H:1 O:1',
        thermo=(NASA([10.00, 984.14],
                     [ 3.49686242E+00,  1.83973160E-04, -9.97634499E-07,
                       1.56942783E-09, -6.10128175E-13,  3.41673934E+03,
                       1.48093120E+00]),
                NASA([984.14, 3000.00],
                     [ 3.45221464E+00, -2.95124034E-04,  7.39418622E-07,
                      -2.89309866E-10,  3.53041498E-14,  3.45751599E+03,
                       1.85813897E+00])))

species(name='disub_c4ether',
        atoms='C:4 H:8 O:2',
        thermo=(NASA([10.00, 413.50],
                     [ 3.78241323E+00,  1.89501763E-02,  8.65302396E-05,
                      -1.80580575E-07,  1.13656264E-10, -3.85501609E+04,
                       1.09982450E+01]),
                NASA([413.50, 3000.00],
                     [ 4.29420885E-01,  5.13851903E-02, -3.11292293E-05,
                       9.11498284E-09, -1.03192718E-12, -3.82728665E+04,
                       2.42134976E+01])))

species(name='H2O',
        atoms='H:2 O:1',
        thermo=(NASA([10.00, 773.84],
                     [ 4.00473541E+00, -2.39729134E-04,  8.11862955E-07,
                       1.47891862E-09, -1.19783539E-12, -3.03533807E+04,
                      -9.96254147E-02]),
                NASA([773.84, 3000.00],
                     [ 3.52133374E+00,  1.05377009E-03,  6.40722099E-07,
                      -3.86240235E-10,  5.49243294E-14, -3.02424794E+04,
                       2.34173094E+00])))

species(name='disub_epoxy',
        atoms='C:4 H:8 O:2',
        thermo=(NASA([10.00, 549.41],
                     [ 3.89863211E+00,  5.97532637E-03,  1.66685676E-04,
                      -3.10743768E-07,  1.78330192E-10, -4.04117150E+04,
                       1.13847308E+01]),
                NASA([549.41, 3000.00],
                     [-6.40277648E-01,  6.05960003E-02, -4.13427220E-05,
                       1.31555461E-08, -1.57685017E-12, -4.02385981E+04,
                       2.76005436E+01])))

species(name='gQOOHa',
        atoms='C:4 H:9 O:3',
        thermo=(NASA([10.00, 160.74],
                     [ 3.80808147E+00,  2.31043884E-02,  5.26945984E-04,
                      -3.11500696E-06,  6.03881958E-09, -2.34820945E+04,
                       1.17645316E+01]),
                NASA([160.74, 3000.00],
                     [ 2.90630300E+00,  6.50241173E-02, -4.60073244E-05,
                       1.51330930E-08, -1.87074267E-12, -2.34782699E+04,
                       1.36838819E+01])))

species(name='propene1ol',
        atoms='C:3 H:6 O:1',
        thermo=(NASA([10.00, 459.42],
                     [ 3.91245344E+00,  5.85800161E-03,  1.15412006E-04,
                      -2.68014417E-07,  1.91800131E-10, -1.99007639E+04,
                       8.14807684E+00]),
                NASA([459.42, 3000.00],
                     [ 3.14049093E+00,  2.95550898E-02, -1.73843684E-05,
                       5.11506211E-09, -5.92966137E-13, -2.00089864E+04,
                       9.32215170E+00])))

species(name='gQOOHb',
        atoms='C:4 H:9 O:3',
        thermo=(NASA([10.00, 1018.67],
                     [ 3.99028351E+00,  4.29665712E-02,  2.28338778E-05,
                      -5.67914439E-08,  2.29383258E-11, -2.38470762E+04,
                       1.20326731E+01]),
                NASA([1018.67, 3000.00],
                     [ 1.38304153E+01,  3.88527019E-02, -2.19473905E-05,
                       5.78719895E-09, -5.85097740E-13, -2.76431610E+04,
                      -4.44147388E+01])))

species(name='ipropylOOH',
        atoms='C:3 H:7 O:2',
        thermo=(NASA([10.00, 405.01],
                     [ 3.30075623E+00,  7.58672756E-02, -3.35754269E-04,
                       8.05972164E-07, -6.68864582E-10, -1.09146284E+02,
                       1.43372849E+01]),
                NASA([405.01, 3000.00],
                     [ 2.51742509E+00,  3.72760950E-02, -2.12450220E-05,
                       5.83593926E-09, -6.22110649E-13,  3.34261323E+02,
                       2.20991392E+01])))

species(name='galdoxy',
        atoms='C:4 H:7 O:2',
        thermo=(NASA([10.00, 209.62],
                     [ 3.82641108E+00,  1.84758886E-02,  3.43073800E-04,
                      -1.82817005E-06,  2.98516720E-09, -2.01299867E+04,
                       1.17972706E+01]),
                NASA([209.62, 3000.00],
                     [ 4.22049016E+00,  4.03370149E-02, -2.36129482E-05,
                       6.72979114E-09, -7.47862493E-13, -2.02110564E+04,
                       8.97211724E+00])))

species(name='galkene',
        atoms='C:4 H:8 O:1',
        thermo=(NASA([10.00, 383.47],
                     [ 3.84035604E+00,  1.20378740E-02,  1.87486319E-04,
                      -5.44759148E-07,  4.80711015E-10, -2.16740857E+04,
                       1.02570291E+01]),
                NASA([383.47, 3000.00],
                     [ 4.00413385E+00,  3.79025144E-02, -2.15435710E-05,
                       6.15213311E-09, -6.97446345E-13, -2.18893750E+04,
                       6.98052628E+00])))

species(name='CH2O',
        atoms='C:1 H:2 O:1',
        thermo=(NASA([10.00, 601.31],
                     [ 4.03190845E+00, -1.93233367E-03,  8.89743345E-06,
                       2.98105926E-09, -7.90813886E-12, -1.42276270E+04,
                       3.47574660E+00]),
                NASA([601.31, 3000.00],
                     [ 1.40134195E+00,  9.48858016E-03, -4.43088317E-06,
                       9.48452194E-10, -7.43790219E-14, -1.38013869E+04,
                       1.57423780E+01])))

species(name='O2',
        atoms='O:2',
        thermo=(NASA([10.00, 605.96],
                     [ 3.50743498E+00, -4.43860349E-04,  1.45938058E-06,
                       1.61509333E-09, -2.32050052E-12, -9.24756224E+02,
                       4.72183634E+00]),
                NASA([605.96, 3000.00],
                     [ 2.87462882E+00,  2.17840991E-03, -1.18262921E-06,
                       2.86910493E-10, -2.53297146E-14, -8.19517838E+02,
                       7.69331810E+00])))

species(name='gRO2',
        atoms='C:4 H:9 O:3',
        thermo=(NASA([10.00, 177.33],
                     [ 3.70632176E+00,  3.49733664E-02,  4.64036392E-04,
                      -3.18637835E-06,  6.38178607E-09, -2.54064536E+04,
                       1.24459269E+01]),
                NASA([177.33, 3000.00],
                     [ 4.82062697E+00,  5.17179689E-02, -3.18386818E-05,
                       9.52247045E-09, -1.10180288E-12, -2.55118242E+04,
                       7.14082953E+00])))

species(name='gQOOHg',
        atoms='C:4 H:9 O:3',
        thermo=(NASA([10.00, 475.03],
                     [ 3.42273720E+00,  4.98344215E-02,  6.47820920E-05,
                      -2.49842966E-07,  1.98636537E-10, -1.96217507E+04,
                       1.41578583E+01]),
                NASA([475.03, 3000.00],
                     [ 5.94049074E+00,  5.53778585E-02, -3.71708255E-05,
                       1.17540477E-08, -1.40812095E-12, -2.01627050E+04,
                       7.09201218E-01])))

species(name='gR',
        atoms='C:4 H:9 O:1',
        thermo=(NASA([10.00, 638.24],
                     [ 3.37074633E+00,  5.17529751E-02, -6.54872940E-05,
                       6.88084237E-08, -3.21569794E-11, -1.15808869E+04,
                       1.14339669E+01]),
                NASA([638.24, 3000.00],
                     [ 3.99410860E+00,  4.06314915E-02, -2.23932510E-05,
                       6.08356263E-09, -6.49884708E-13, -1.15135122E+04,
                       9.85769960E+00])))

species(name='galdol',
        atoms='C:4 H:8 O:2',
        thermo=(NASA([10.00, 506.68],
                     [ 3.85380874E+00,  9.21272695E-03,  1.86712348E-04,
                      -3.96417049E-07,  2.55528268E-10, -4.57533268E+04,
                       1.24312743E+01]),
                NASA([506.68, 3000.00],
                     [ 1.49710213E+00,  5.65979142E-02, -3.87709084E-05,
                       1.23682052E-08, -1.48287964E-12, -4.58839361E+04,
                       1.85531759E+01])))

species(name='monosub_c4ether',
        atoms='C:4 H:8 O:2',
        thermo=(NASA([10.00, 380.36],
                     [ 3.47743996E+00,  6.08051311E-02, -2.78518945E-04,
                       8.23182713E-07, -7.87158031E-10, -3.25703232E+04,
                       1.06415154E+01]),
                NASA([380.36, 3000.00],
                     [-1.09346901E+00,  5.35985968E-02, -3.21081420E-05,
                       9.20818293E-09, -1.01830294E-12, -3.18227632E+04,
                       3.35312368E+01])))

species(name='HO2',
        atoms='H:1 O:2',
        thermo=(NASA([10.00, 891.11],
                     [ 4.02887004E+00, -1.75769289E-03,  1.08726004E-05,
                      -1.13812972E-08,  3.90113097E-12,  4.95165001E+02,
                       4.69302008E+00]),
                NASA([891.11, 3000.00],
                     [ 3.06571044E+00,  4.28505005E-03, -2.19325920E-06,
                       5.58882699E-10, -5.61246669E-14,  5.98557610E+02,
                       8.84564156E+00])))

species(name='gQOOH[O]',
        atoms='C:4 H:9 O:3',
        thermo=(NASA([10.00, 535.23],
                     [ 3.83107445E+00,  1.02302002E-02,  2.29377261E-04,
                      -4.59095575E-07,  2.77765018E-10, -1.87092905E+04,
                       1.41034859E+01]),
                NASA([535.23, 3000.00],
                     [-4.19283096E-01,  7.69784620E-02, -5.57279000E-05,
                       1.81378295E-08, -2.18295635E-12, -1.87554039E+04,
                       2.72711816E+01])))

#-------------------------------------------------------------------------------
# Reaction data
#-------------------------------------------------------------------------------

# Reaction 1
chebyshev_reaction('gQOOH[O] (+ M) <=> gRO2 (+ M)',
                   Tmin=180.0, Tmax=1500.0,
                   Pmin=(0.01, 'atm'), Pmax=(98.692, 'atm'),
                   coeffs=[[ 4.82500e+00,  1.68300e+00, -1.68800e-01, -8.93300e-03, -4.84500e-03,  2.74400e-03,  5.39300e-04, -4.65700e-05],
                           [-5.83300e+00,  6.62900e-01,  3.70100e-02,  1.37300e-02, -5.77900e-04, -9.89800e-04,  3.16400e-05,  5.24600e-05],
                           [-3.76700e+00, -1.73200e-01, -6.77600e-02,  8.28100e-03,  8.53000e-03,  2.73400e-03,  2.32700e-04, -4.59200e-04],
                           [-1.92000e+00, -1.97900e-01, -3.97200e-02, -8.71700e-03,  2.19700e-03,  1.78700e-03,  3.55200e-04, -1.20600e-04],
                           [-8.86200e-01, -1.27300e-01, -6.75200e-03,  4.47600e-03,  2.08000e-03,  1.36700e-04, -5.25500e-04, -2.60400e-04],
                           [-3.84000e-01, -1.02300e-01, -1.94400e-02,  7.49900e-03,  3.84700e-03,  7.85000e-04, -3.30200e-04, -3.15400e-04],
                           [-1.49200e-01, -5.03900e-02, -3.50800e-02, -5.06000e-03,  1.47100e-03,  8.47300e-04,  1.63200e-04, -3.13700e-05],
                           [-3.37900e-02,  9.83900e-03, -2.62000e-02, -1.31100e-02, -1.96600e-03,  8.02400e-05,  1.36200e-04,  9.12600e-05],
                           [ 1.27600e-02,  4.52200e-02, -2.79300e-03, -1.13300e-02, -3.80800e-03, -2.42300e-04,  1.02600e-04,  5.73900e-05],
                           [ 1.15100e-02,  5.46700e-02,  1.63500e-02, -6.23300e-03, -3.93600e-03, -3.64000e-04,  2.29600e-04,  1.24400e-04]])

# Reaction 2
chebyshev_reaction('gQOOHa (+ M) <=> gRO2 (+ M)',
                   Tmin=180.0, Tmax=1500.0,
                   Pmin=(0.01, 'atm'), Pmax=(98.692, 'atm'),
                   coeffs=[[ 2.73300e+00,  1.02200e+00, -8.49600e-03,  1.40600e-02, -3.74600e-03,  8.56100e-04, -3.74400e-05, -3.72300e-05],
                           [-6.09200e+00,  1.03600e+00,  1.29800e-01, -7.70600e-03,  5.55000e-03, -5.12000e-04, -4.08900e-04,  1.80300e-04],
                           [-4.08500e+00, -1.47100e-01,  6.21100e-02,  2.54100e-02,  4.71100e-03, -4.05300e-04, -5.74200e-04,  7.77000e-05],
                           [-1.78600e+00, -3.11600e-01, -9.88500e-02,  2.67900e-02,  1.07100e-02, -8.51000e-04, -3.51700e-04, -4.75700e-05],
                           [-7.78600e-01, -8.55000e-02, -7.79500e-02, -5.88700e-03,  7.61000e-03,  1.71000e-03, -2.86500e-04, -1.20600e-04],
                           [-4.13000e-01, -5.84500e-02, -1.15000e-02, -1.73600e-03, -4.03100e-05,  1.29900e-03,  2.95700e-04, -1.01500e-04],
                           [-1.89200e-01, -8.90500e-02, -3.99800e-02,  6.89600e-03,  4.45400e-03, -1.72400e-04, -6.05500e-05, -2.35000e-06],
                           [-5.00500e-02, -2.52600e-02, -5.96800e-02, -1.62800e-02,  5.76800e-03,  2.39900e-03, -3.42500e-04, -1.89400e-04],
                           [ 6.41000e-03,  5.47400e-02, -1.54100e-02, -2.66200e-02, -5.32500e-03,  2.64400e-03,  9.15800e-04, -1.33700e-04],
                           [ 3.30500e-02,  6.48400e-02,  2.57100e-02, -6.82800e-03, -9.78500e-03, -1.57000e-03,  1.11300e-03,  4.30300e-04]])

# Reaction 3
chebyshev_reaction('gQOOHg (+ M) <=> gRO2 (+ M)',
                   Tmin=180.0, Tmax=1500.0,
                   Pmin=(0.01, 'atm'), Pmax=(98.692, 'atm'),
                   coeffs=[[ 3.64400e+00,  1.29600e+00, -1.28600e-01,  3.13100e-02, -1.20100e-03, -1.15300e-03,  7.11200e-05,  3.80600e-05],
                           [-5.56200e+00,  1.29000e+00,  6.29000e-02, -6.97600e-04,  3.25700e-03, -3.73200e-04, -6.27500e-04,  1.12400e-04],
                           [-4.01000e+00, -1.23000e-01,  1.15000e-01,  3.38200e-02, -4.83100e-03, -9.96500e-04,  4.22200e-04, -8.22400e-05],
                           [-2.00000e+00, -4.26600e-01, -4.02700e-02,  3.43900e-02,  7.89000e-03, -2.33200e-03, -4.19400e-04,  2.18100e-04],
                           [-8.24900e-01, -2.18500e-01, -7.29700e-02, -2.13600e-03,  7.92200e-03,  2.11200e-03, -7.07400e-04, -2.53300e-04],
                           [-3.38800e-01, -9.07900e-02, -2.78700e-02, -3.76200e-03, -1.45500e-03,  1.57600e-03,  7.86400e-04, -2.83000e-04],
                           [-1.51500e-01, -6.91800e-02, -3.00600e-02,  8.11200e-03,  2.05200e-03, -1.47200e-03,  2.70500e-04,  2.67600e-04],
                           [-5.19400e-02, -3.70600e-02, -4.91500e-02, -5.07500e-03,  7.26800e-03,  8.62900e-04, -8.68100e-04, -1.03800e-05],
                           [ 5.12400e-03,  2.19400e-02, -3.08800e-02, -2.21500e-02,  3.47000e-04,  3.29600e-03,  2.49900e-04, -3.74400e-04],
                           [ 2.13600e-02,  5.85000e-02,  7.35100e-03, -1.58600e-02, -8.28600e-03,  4.77800e-04,  1.38300e-03,  1.79000e-04]])

# Reaction 4
chebyshev_reaction('gQOOHb (+ M) <=> gRO2 (+ M)',
                   Tmin=180.0, Tmax=1500.0,
                   Pmin=(0.01, 'atm'), Pmax=(98.692, 'atm'),
                   coeffs=[[ 2.71600e-01,  8.90800e-01,  4.93600e-02,  1.02000e-03, -2.68000e-03,  8.64100e-05, -5.11000e-05,  6.07000e-05],
                           [-1.15300e+00,  1.19300e+00,  1.36600e-01, -3.92300e-03, -1.53100e-03,  6.51100e-05, -8.92600e-05,  7.13200e-05],
                           [-3.08000e+00,  2.82900e-01,  7.99700e-02,  8.20300e-03,  3.11100e-03,  2.17900e-04, -1.41700e-04,  2.64700e-05],
                           [-1.85600e+00, -1.98900e-01, -2.38800e-02,  8.68200e-03,  7.11500e-03,  8.80200e-04, -2.36500e-04, -1.56500e-05],
                           [-9.49500e-01, -2.50700e-01, -6.93100e-02, -1.32100e-03,  5.77300e-03,  1.27200e-03, -9.99800e-05, -4.50400e-05],
                           [-4.13300e-01, -1.35300e-01, -6.23500e-02, -5.95700e-03,  2.74700e-03,  6.87000e-04, -1.51900e-05, -2.53700e-05],
                           [-1.33900e-01, -2.67100e-02, -4.25700e-02, -7.41700e-03,  1.55100e-03,  3.34300e-04, -8.39200e-05, -3.01300e-05],
                           [-2.77300e-02,  3.09800e-02, -2.34800e-02, -1.00900e-02,  2.28300e-04,  5.80900e-04,  1.79000e-05, -3.12500e-05],
                           [ 2.57000e-02,  4.92500e-02, -3.81500e-03, -1.11600e-02, -2.36000e-03,  4.58600e-04,  2.76300e-04,  5.16000e-05],
                           [-2.51700e-03,  4.77800e-02,  1.10400e-02, -6.48400e-03, -4.54400e-03, -4.05700e-04,  3.96500e-04,  1.75600e-04]])

# Reaction 5
chebyshev_reaction('O2 + gR (+ M) <=> gRO2 (+ M)',
                   Tmin=180.0, Tmax=1500.0,
                   Pmin=(0.01, 'atm'), Pmax=(98.692, 'atm'),
                   coeffs=[[ 7.91200e+00,  1.96300e+00, -6.72600e-01,  2.02300e-01, -4.70500e-02,  6.37000e-03,  1.01600e-03, -9.13000e-04],
                           [-3.56100e+00,  1.60100e+00, -5.68500e-02, -1.27200e-01,  6.29900e-02, -1.41200e-02,  5.57100e-04,  6.98500e-04],
                           [-2.17600e+00,  5.86600e-01,  1.60300e-01, -8.05400e-02,  9.12000e-03,  4.55300e-03, -1.35000e-03, -3.03500e-04],
                           [-1.23800e+00, -3.59500e-02,  1.80300e-01, -2.11600e-02, -8.69800e-03,  2.51800e-03,  9.17200e-04, -4.37800e-04],
                           [-6.58700e-01, -2.19300e-01,  7.46800e-02,  2.15900e-02, -6.24800e-03, -1.99100e-03,  1.00200e-03,  1.66400e-04],
                           [-3.02400e-01, -2.04400e-01, -9.14100e-03,  2.30100e-02,  3.15000e-03, -2.62900e-03, -3.37800e-04,  3.68100e-04],
                           [-1.06500e-01, -1.13100e-01, -4.52000e-02,  6.98600e-03,  7.16500e-03, -4.46700e-04, -1.04900e-03,  6.26800e-05],
                           [-1.53900e-02, -2.37300e-02, -4.08100e-02, -8.06300e-03,  4.92700e-03,  1.50600e-03, -7.34900e-04, -2.17700e-04],
                           [ 1.54400e-02,  2.90500e-02, -1.72200e-02, -1.33400e-02, -1.55400e-04,  1.89500e-03, -1.18100e-05, -2.14200e-04],
                           [ 1.92700e-02,  3.91000e-02,  7.88200e-03, -1.01900e-02, -3.82600e-03,  8.57100e-04,  5.04000e-04,  1.98400e-06]])
#  gRO2(+M) <=> gQOOH[O](+M)                           1.000e+00 0.000     0.000
#      TCHEB/ 180.000   1500.000 /
#      PCHEB/ 0.010     98.692   /
#      CHEB/ 10 8/
#      CHEB/ -4.709e+00   1.683e+00    -1.688e-01   -8.933e-03   -4.845e-03  /
#      CHEB/ 2.744e-03    5.393e-04    -4.657e-05   1.013e+00    6.629e-01   /
#      CHEB/ 3.701e-02    1.373e-02    -5.779e-04   -9.898e-04   3.164e-05   /
#      CHEB/ 5.246e-05    -3.594e+00   -1.732e-01   -6.776e-02   8.281e-03   /
#      CHEB/ 8.530e-03    2.734e-03    2.327e-04    -4.592e-04   -1.795e+00  /
#      CHEB/ -1.979e-01   -3.972e-02   -8.717e-03   2.197e-03    1.787e-03   /
#      CHEB/ 3.552e-04    -1.206e-04   -8.325e-01   -1.273e-01   -6.752e-03  /
#      CHEB/ 4.476e-03    2.080e-03    1.367e-04    -5.255e-04   -2.604e-04  /
#      CHEB/ -3.650e-01   -1.023e-01   -1.944e-02   7.499e-03    3.847e-03   /
#      CHEB/ 7.850e-04    -3.302e-04   -3.154e-04   -1.430e-01   -5.039e-02  /
#      CHEB/ -3.508e-02   -5.060e-03   1.471e-03    8.473e-04    1.632e-04   /
#      CHEB/ -3.137e-05   -3.187e-02   9.839e-03    -2.620e-02   -1.311e-02  /
#      CHEB/ -1.966e-03   8.024e-05    1.362e-04    9.126e-05    1.322e-02   /
#      CHEB/ 4.522e-02    -2.793e-03   -1.133e-02   -3.808e-03   -2.423e-04  /
#      CHEB/ 1.026e-04    5.739e-05    1.148e-02    5.467e-02    1.635e-02   /
#      CHEB/ -6.233e-03   -3.936e-03   -3.640e-04   2.296e-04    1.244e-04   /

# Reaction 6
chebyshev_reaction('gQOOHa (+ M) <=> gQOOH[O] (+ M)',
                   Tmin=180.0, Tmax=1500.0,
                   Pmin=(0.01, 'atm'), Pmax=(98.692, 'atm'),
                   coeffs=[[-6.76400e+00,  1.25200e+00, -2.85100e-01, -4.56100e-03, -4.24400e-03,  1.81400e-03,  4.30300e-04,  2.43300e-04],
                           [-3.94400e+00,  1.33400e+00,  2.40900e-01,  6.01000e-03, -2.21800e-03,  1.89600e-05, -5.05800e-04, -2.52700e-04],
                           [-4.88100e+00, -4.53600e-01, -6.90500e-02,  4.77800e-02,  1.54900e-02,  6.46800e-04,  1.75900e-04, -3.11400e-04],
                           [-1.95200e+00, -3.15100e-01, -1.70000e-01,  4.40300e-03,  1.44300e-02,  1.63300e-03, -3.91400e-04, -2.38400e-04],
                           [-7.58500e-01,  3.29300e-02, -4.82400e-02, -1.32400e-02,  5.43300e-03,  2.23800e-03, -8.91600e-04, -4.82000e-04],
                           [-3.95500e-01, -2.40100e-02,  3.09300e-02,  8.92700e-03, -9.81500e-04,  8.83600e-04,  6.95900e-05, -2.67600e-04],
                           [-2.19900e-01, -1.14200e-01, -2.72200e-02,  1.44800e-02,  4.31900e-03, -6.60300e-04, -3.35000e-05,  1.16500e-04],
                           [-7.01100e-02, -5.36700e-02, -6.36900e-02, -1.56300e-02,  5.53300e-03,  1.85800e-03, -4.34700e-04, -9.28700e-05],
                           [ 1.18200e-02,  4.29800e-02, -1.87000e-02, -2.76400e-02, -5.43100e-03,  2.44000e-03,  8.57800e-04, -1.62700e-04],
                           [ 1.20900e-02,  7.28500e-02,  2.66200e-02, -8.69400e-03, -9.50700e-03, -1.18100e-03,  1.10900e-03,  4.21200e-04]])

# Reaction 7
chebyshev_reaction('gQOOHg (+ M) <=> gQOOH[O] (+ M)',
                   Tmin=180.0, Tmax=1500.0,
                   Pmin=(0.01, 'atm'), Pmax=(98.692, 'atm'),
                   coeffs=[[-4.12400e+00,  1.52200e+00, -2.40500e-01, -3.01300e-02, -1.20800e-02,  1.34700e-03,  1.58600e-03,  5.35800e-04],
                           [-5.37900e+00,  1.21800e+00,  1.40500e-01,  5.40500e-02,  5.34400e-03, -5.17600e-03, -1.29700e-03, -2.97700e-05],
                           [-4.37100e+00, -5.39400e-01, -3.29300e-02,  3.95900e-02,  1.08000e-02,  4.77300e-03,  4.77400e-04, -1.00100e-03],
                           [-1.99200e+00, -3.88000e-01, -1.07800e-01,  8.94300e-03,  7.08400e-03, -2.40800e-04,  3.60700e-04,  1.62500e-04],
                           [-7.92200e-01, -7.44300e-02, -4.08300e-02, -9.27600e-04,  4.56100e-03, -6.80400e-05, -1.15600e-03, -1.86900e-04],
                           [-3.57400e-01, -4.28800e-02,  7.44400e-03,  9.36700e-03,  4.07800e-04,  4.84100e-04,  1.47300e-04, -3.14000e-04],
                           [-2.03200e-01, -7.88500e-02, -2.61500e-02,  1.16300e-02,  4.35500e-03, -1.15400e-03,  1.32700e-04,  2.84100e-04],
                           [-8.25500e-02, -5.83000e-02, -5.59400e-02, -8.30900e-03,  6.93600e-03,  1.14700e-03, -8.29500e-04, -2.53500e-05],
                           [ 3.52200e-04,  1.13500e-02, -3.22900e-02, -2.49300e-02, -8.85100e-04,  3.35900e-03,  2.81900e-04, -4.05900e-04],
                           [ 1.38300e-02,  7.37300e-02,  7.88100e-03, -1.69900e-02, -8.69500e-03,  4.05400e-04,  1.51800e-03,  2.13700e-04]])

# Reaction 8
chebyshev_reaction('gQOOHb (+ M) <=> gQOOH[O] (+ M)',
                   Tmin=180.0, Tmax=1500.0,
                   Pmin=(0.01, 'atm'), Pmax=(98.692, 'atm'),
                   coeffs=[[-8.48500e+00,  1.09500e+00, -1.27700e-01, -2.40100e-02, -1.19600e-02,  1.87500e-03,  9.63900e-04,  5.36600e-05],
                           [ 1.39500e-02,  1.50400e+00,  1.73900e-01,  3.10800e-02,  1.45100e-03, -2.86200e-03, -8.50000e-04,  1.20800e-04],
                           [-3.68200e+00, -4.77300e-02, -1.08500e-01,  1.80200e-02,  1.53600e-02,  4.45500e-03,  9.15800e-04, -5.36200e-04],
                           [-1.96800e+00, -1.61200e-01, -9.71500e-02, -1.35900e-02,  4.38500e-03,  2.40500e-03,  6.98000e-04, -1.20900e-06],
                           [-9.39700e-01, -1.01900e-01, -2.96700e-02,  5.38400e-03,  2.70900e-03, -6.19500e-04, -8.46000e-04, -2.73800e-04],
                           [-4.19200e-01, -9.90200e-02, -2.63000e-02,  1.26500e-02,  4.75200e-03,  2.36900e-04, -5.50000e-04, -3.51700e-04],
                           [-1.67300e-01, -6.23900e-02, -4.01200e-02, -1.86100e-03,  2.30600e-03,  9.50700e-04,  1.70100e-04, -1.26000e-05],
                           [-3.81300e-02, -3.09400e-03, -3.15400e-02, -1.25800e-02, -1.58200e-03,  4.22900e-04,  2.75300e-04,  1.16000e-04],
                           [ 1.57800e-02,  3.71300e-02, -5.53100e-03, -1.23700e-02, -4.05400e-03,  7.65500e-05,  2.75200e-04,  6.23100e-05],
                           [ 1.29200e-02,  5.41900e-02,  1.60600e-02, -7.90000e-03, -4.48800e-03, -1.89200e-04,  2.99500e-04,  1.57300e-04]])

# Reaction 9
chebyshev_reaction('O2 + gR (+ M) <=> gQOOH[O] (+ M)',
                   Tmin=180.0, Tmax=1500.0,
                   Pmin=(0.01, 'atm'), Pmax=(98.692, 'atm'),
                   coeffs=[[ 6.84500e-01,  2.66300e+00, -5.05500e-01,  1.33600e-01, -6.79400e-02, -9.59100e-03, -1.41900e-03,  7.42700e-04],
                           [-3.94100e+00,  6.04900e-01, -1.51600e-01, -1.25200e-01,  1.10100e-01, -2.79800e-03,  5.38600e-03, -3.54200e-04],
                           [-2.30100e+00,  1.93800e-01,  8.81900e-02, -1.27900e-01,  2.64300e-02,  7.91500e-03, -1.86200e-03, -6.17900e-04],
                           [-1.15000e+00, -8.04600e-03,  1.95100e-01, -5.43200e-02, -1.21400e-02,  7.39800e-04, -2.11800e-04,  9.07300e-04],
                           [-6.03200e-01, -1.17000e-01,  1.33800e-01,  2.57400e-02, -7.19000e-03, -2.40200e-03, -1.38600e-03,  8.48400e-04],
                           [-3.14800e-01, -1.83600e-01,  2.40400e-02,  3.61100e-02,  4.65400e-03, -2.67500e-04, -2.10300e-03,  7.65400e-04],
                           [-1.58500e-01, -1.31000e-01, -4.86200e-02,  1.07700e-02,  6.46600e-03,  2.09100e-03, -1.78200e-03,  4.54100e-04],
                           [-4.67600e-02, -4.36800e-02, -5.16200e-02, -9.78200e-03,  1.99900e-03,  2.56800e-03, -1.14100e-03, -5.83000e-05],
                           [ 1.15200e-02,  2.21400e-02, -1.93300e-02, -1.49400e-02, -2.54400e-03,  2.08500e-03, -2.16500e-04, -2.76200e-04],
                           [ 1.26200e-02,  5.70600e-02,  8.51800e-03, -1.02600e-02, -4.40500e-03,  8.46000e-04,  6.08900e-04, -1.37100e-04]])
#  gRO2(+M) <=> gQOOHa(+M)                             1.000e+00 0.000     0.000
#      TCHEB/ 180.000   1500.000 /
#      PCHEB/ 0.010     98.692   /
#      CHEB/ 10 8/
#      CHEB/ -1.761e-01   1.022e+00    -8.496e-03   1.406e-02    -3.746e-03  /
#      CHEB/ 8.561e-04    -3.744e-05   -3.723e-05   -3.829e+00   1.036e+00   /
#      CHEB/ 1.298e-01    -7.706e-03   5.550e-03    -5.120e-04   -4.089e-04  /
#      CHEB/ 1.803e-04    -3.923e+00   -1.471e-01   6.211e-02    2.541e-02   /
#      CHEB/ 4.711e-03    -4.053e-04   -5.742e-04   7.770e-05    -1.712e+00  /
#      CHEB/ -3.116e-01   -9.885e-02   2.679e-02    1.071e-02    -8.510e-04  /
#      CHEB/ -3.517e-04   -4.757e-05   -7.500e-01   -8.550e-02   -7.795e-02  /
#      CHEB/ -5.887e-03   7.610e-03    1.710e-03    -2.865e-04   -1.206e-04  /
#      CHEB/ -4.032e-01   -5.845e-02   -1.150e-02   -1.736e-03   -4.031e-05  /
#      CHEB/ 1.299e-03    2.957e-04    -1.015e-04   -1.863e-01   -8.905e-02  /
#      CHEB/ -3.998e-02   6.896e-03    4.454e-03    -1.724e-04   -6.055e-05  /
#      CHEB/ -2.350e-06   -4.941e-02   -2.526e-02   -5.968e-02   -1.628e-02  /
#      CHEB/ 5.768e-03    2.399e-03    -3.425e-04   -1.894e-04   6.406e-03   /
#      CHEB/ 5.474e-02    -1.541e-02   -2.662e-02   -5.325e-03   2.644e-03   /
#      CHEB/ 9.158e-04    -1.337e-04   3.293e-02    6.484e-02    2.571e-02   /
#      CHEB/ -6.828e-03   -9.785e-03   -1.570e-03   1.113e-03    4.303e-04   /
#  gQOOH[O](+M) <=> gQOOHa(+M)                         1.000e+00 0.000     0.000
#      TCHEB/ 180.000   1500.000 /
#      PCHEB/ 0.010     98.692   /
#      CHEB/ 10 8/
#      CHEB/ -1.384e-01   1.252e+00    -2.851e-01   -4.561e-03   -4.244e-03  /
#      CHEB/ 1.814e-03    4.303e-04    2.433e-04    -8.527e+00   1.334e+00   /
#      CHEB/ 2.409e-01    6.010e-03    -2.218e-03   1.896e-05    -5.058e-04  /
#      CHEB/ -2.527e-04   -4.893e+00   -4.536e-01   -6.905e-02   4.778e-02   /
#      CHEB/ 1.549e-02    6.468e-04    1.759e-04    -3.114e-04   -2.003e+00  /
#      CHEB/ -3.151e-01   -1.700e-01   4.403e-03    1.443e-02    1.633e-03   /
#      CHEB/ -3.914e-04   -2.384e-04   -7.836e-01   3.293e-02    -4.824e-02  /
#      CHEB/ -1.324e-02   5.433e-03    2.238e-03    -8.916e-04   -4.820e-04  /
#      CHEB/ -4.047e-01   -2.401e-02   3.093e-02    8.927e-03    -9.815e-04  /
#      CHEB/ 8.836e-04    6.959e-05    -2.676e-04   -2.232e-01   -1.142e-01  /
#      CHEB/ -2.722e-02   1.448e-02    4.319e-03    -6.603e-04   -3.350e-05  /
#      CHEB/ 1.165e-04    -7.140e-02   -5.367e-02   -6.369e-02   -1.563e-02  /
#      CHEB/ 5.533e-03    1.858e-03    -4.347e-04   -9.287e-05   1.136e-02   /
#      CHEB/ 4.298e-02    -1.870e-02   -2.764e-02   -5.431e-03   2.440e-03   /