units(length='cm', time='s', quantity='mol', act_energy='kcal/mol')

ideal_gas(name='gas',
          elements="H D T C Ci O Oi N Ne Ar He Si S F Cl Br I X",
          species="""aOOHbalkene      OH               ibutanal
                     aR               performic_acid   disub_c4ether
                     aQOOHb           H                aadduct
                     trisub_epoxy     ibutenol         aQOOH[O]
                     ipropyl          aRO2             O2
                     formic_acid      propene          aQOOHg
                     ibut_peroxyacid  HO2              CH3""",
          reactions='all',
          initial_state=state(temperature=300.0, pressure=OneAtm))

#-------------------------------------------------------------------------------
# Element data
#-------------------------------------------------------------------------------

element(symbol='Ci', atomic_mass=13.003)
element(symbol='D', atomic_mass=2.014)
element(symbol='Oi', atomic_mass=18.0)
element(symbol='T', atomic_mass=3.016)
element(symbol='X', atomic_mass=195.083)
#-------------------------------------------------------------------------------
# Species data
#-------------------------------------------------------------------------------

species(name='aOOHbalkene',
        atoms='C:3 H:6 O:3',
        thermo=(NASA([10.00, 497.41],
                     [ 3.76691735E+00,  1.51417956E-02,  1.85499431E-04,
                      -4.61303214E-07,  3.27678941E-10, -3.18716633E+04,
                       1.09903968E+01]),
                NASA([497.41, 3000.00],
                     [ 6.20882781E+00,  4.08866173E-02, -2.89934946E-05,
                       9.60428979E-09, -1.19355432E-12, -3.26759926E+04,
                      -4.72842811E+00])))

species(name='OH',
        atoms='H:1 O:1',
        thermo=(NASA([10.00, 984.14],
                     [ 3.49686242E+00,  1.83973160E-04, -9.97634499E-07,
                       1.56942783E-09, -6.10128175E-13,  3.41673934E+03,
                       1.48093120E+00]),
                NASA([984.14, 3000.00],
                     [ 3.45221464E+00, -2.95124034E-04,  7.39418622E-07,
                      -2.89309866E-10,  3.53041498E-14,  3.45751599E+03,
                       1.85813897E+00])))

species(name='ibutanal',
        atoms='C:4 H:8 O:1',
        thermo=(NASA([10.00, 683.88],
                     [ 3.57157346E+00,  3.36936906E-02, -1.78475021E-05,
                       1.31946716E-08, -7.58008388E-12, -2.63511090E+04,
                       1.05595084E+01]),
                NASA([683.88, 3000.00],
                     [ 1.29043622E+00,  4.14804229E-02, -2.27411206E-05,
                       6.08619500E-09, -6.38995128E-13, -2.59091899E+04,
                       2.16477430E+01])))

species(name='aR',
        atoms='C:4 H:9 O:1',
        thermo=(NASA([10.00, 455.22],
                     [ 3.59625500E+00,  3.38947981E-02,  7.37257079E-06,
                      -3.99275335E-08,  2.49019944E-11, -1.27531289E+04,
                       1.18269265E+01]),
                NASA([455.22, 3000.00],
                     [ 2.49586309E+00,  4.35639890E-02, -2.44887770E-05,
                       6.73363769E-09, -7.23862433E-13, -1.26529457E+04,
                       1.62696907E+01])))

species(name='performic_acid',
        atoms='C:1 H:2 O:3',
        thermo=(NASA([10.00, 590.95],
                     [ 3.92633851E+00,  4.24517168E-03,  6.71106764E-05,
                      -1.36545385E-07,  8.03337864E-11, -3.63028176E+04,
                       8.06485813E+00]),
                NASA([590.95, 3000.00],
                     [ 4.39992934E+00,  1.85411415E-02, -1.36005501E-05,
                       4.62292431E-09, -5.88463603E-13, -3.66643888E+04,
                       3.44353230E+00])))

species(name='disub_c4ether',
        atoms='C:4 H:8 O:2',
        thermo=(NASA([10.00, 413.50],
                     [ 3.78241323E+00,  1.89501763E-02,  8.65302396E-05,
                      -1.80580575E-07,  1.13656264E-10, -3.84779815E+04,
                       1.09982450E+01]),
                NASA([413.50, 3000.00],
                     [ 4.29420885E-01,  5.13851903E-02, -3.11292293E-05,
                       9.11498284E-09, -1.03192718E-12, -3.82006871E+04,
                       2.42134976E+01])))

species(name='aQOOHb',
        atoms='C:4 H:9 O:3',
        thermo=(NASA([10.00, 412.78],
                     [ 3.15498836E+00,  8.55068303E-02, -2.35307993E-04,
                       4.71983261E-07, -3.62709267E-10, -2.94786543E+04,
                       1.52522123E+01]),
                NASA([412.78, 3000.00],
                     [ 4.18099845E+00,  5.26168288E-02, -3.23998410E-05,
                       9.59389339E-09, -1.09464519E-12, -2.93678594E+04,
                       1.35782328E+01])))

species(name='H',
        atoms='H:1',
        thermo=(NASA([10.00, 794.01],
                     [ 2.50000000E+00,  1.99051163E-15, -1.19089508E-17,
                       2.10805655E-20, -1.11017699E-23,  2.54725594E+04,
                      -4.61279342E-01]),
                NASA([794.01, 3000.00],
                     [ 2.50000000E+00,  1.52667235E-14, -1.58445285E-17,
                       6.63088600E-21, -9.62111674E-25,  2.54725594E+04,
                      -4.61279342E-01])))

species(name='aadduct',
        atoms='C:4 H:9 O:3',
        thermo=(NASA([10.00, 449.84],
                     [ 3.06901904E+00,  9.20724491E-02, -2.68085092E-04,
                       5.15249897E-07, -3.68046586E-10, -3.10615198E+04,
                       1.46591735E+01]),
                NASA([449.84, 3000.00],
                     [ 4.11210745E+00,  5.16955724E-02, -2.97401041E-05,
                       8.32758939E-09, -9.08861448E-13, -3.08406788E+04,
                       1.39578825E+01])))

species(name='trisub_epoxy',
        atoms='C:4 H:8 O:2',
        thermo=(NASA([10.00, 209.19],
                     [ 3.75295042E+00,  2.37546930E-02,  1.26610110E-04,
                      -4.78364365E-07,  5.79468168E-10, -3.89140641E+04,
                       1.12739684E+01]),
                NASA([209.19, 3000.00],
                     [ 2.64185254E+00,  4.50006531E-02, -2.57361066E-05,
                       7.15266054E-09, -7.72980731E-13, -3.88675785E+04,
                       1.48960343E+01])))

species(name='ibutenol',
        atoms='C:4 H:8 O:1',
        thermo=(NASA([10.00, 135.97],
                     [ 3.95714996E+00,  5.72646980E-03,  4.63611760E-04,
                      -3.04137514E-06,  6.85019471E-09, -2.26120854E+04,
                       8.21931848E+00]),
                NASA([135.97, 3000.00],
                     [ 3.32467612E+00,  3.69033556E-02, -1.89960416E-05,
                       4.73417677E-09, -4.59705291E-13, -2.26065067E+04,
                       9.58133237E+00])))

species(name='aQOOH[O]',
        atoms='C:4 H:9 O:3',
        thermo=(NASA([10.00, 488.36],
                     [ 3.54559533E+00,  3.89536133E-02,  8.47689703E-05,
                      -2.45147486E-07,  1.76157259E-10, -2.37670986E+04,
                       1.34685910E+01]),
                NASA([488.36, 3000.00],
                     [ 3.94214913E+00,  5.71928314E-02, -3.72516212E-05,
                       1.15209013E-08, -1.35808341E-12, -2.40620595E+04,
                       9.21628964E+00])))

species(name='ipropyl',
        atoms='C:3 H:7',
        thermo=(NASA([10.00, 421.76],
                     [ 3.73943775E+00,  3.10070157E-02, -1.51196908E-04,
                       4.35367329E-07, -3.85565052E-10,  9.49213457E+03,
                       7.79448918E+00]),
                NASA([421.76, 3000.00],
                     [-4.74526725E-01,  3.20862468E-02, -1.67340747E-05,
                       4.21365136E-09, -4.13155573E-13,  1.01934458E+04,
                       2.85865912E+01])))

species(name='aRO2',
        atoms='C:4 H:9 O:3',
        thermo=(NASA([10.00, 670.36],
                     [ 3.45405325E+00,  4.74751311E-02,  9.77507759E-06,
                      -6.31019603E-08,  3.75500067E-11, -3.27632720E+04,
                       1.39284976E+01]),
                NASA([670.36, 3000.00],
                     [ 5.04137652E+00,  5.19952978E-02, -3.16472789E-05,
                       9.22798587E-09, -1.03598915E-12, -3.32904645E+04,
                       4.56056770E+00])))

species(name='O2',
        atoms='O:2',
        thermo=(NASA([10.00, 605.96],
                     [ 3.50743498E+00, -4.43860349E-04,  1.45938058E-06,
                       1.61509333E-09, -2.32050052E-12, -9.24756224E+02,
                       4.72183634E+00]),
                NASA([605.96, 3000.00],
                     [ 2.87462882E+00,  2.17840991E-03, -1.18262921E-06,
                       2.86910493E-10, -2.53297146E-14, -8.19517838E+02,
                       7.69331810E+00])))

species(name='formic_acid',
        atoms='C:1 H:2 O:2',
        thermo=(NASA([10.00, 741.38],
                     [ 4.06855785E+00, -4.74562133E-03,  4.71797900E-05,
                      -6.07490052E-08,  2.51286794E-11, -4.66880837E+04,
                       6.53681035E+00]),
                NASA([741.38, 3000.00],
                     [ 1.13645847E+00,  1.74953124E-02, -1.08112403E-05,
                       3.08075326E-09, -3.34892658E-13, -4.64297918E+04,
                       1.86149484E+01])))

species(name='propene',
        atoms='C:3 H:6',
        thermo=(NASA([10.00, 519.53],
                     [ 3.98723879E+00,  4.72040503E-04,  6.51776229E-05,
                      -9.89891002E-08,  4.91141123E-11,  1.99406057E+03,
                       6.98071210E+00]),
                NASA([519.53, 3000.00],
                     [ 3.79893331E-01,  2.82457690E-02, -1.50108430E-05,
                       3.90894069E-09, -4.00521928E-13,  2.36888792E+03,
                       2.20218922E+01])))

species(name='aQOOHg',
        atoms='C:4 H:9 O:3',
        thermo=(NASA([10.00, 455.48],
                     [ 3.62522127E+00,  2.83222320E-02,  2.08527447E-04,
                      -5.67427418E-07,  4.35169138E-10, -2.49089587E+04,
                       1.26617758E+01]),
                NASA([455.48, 3000.00],
                     [ 5.13914202E+00,  5.96270859E-02, -4.14435328E-05,
                       1.34202375E-08, -1.63474553E-12, -2.55095150E+04,
                       1.46991116E+00])))

species(name='ibut_peroxyacid',
        atoms='C:4 H:8 O:3',
        thermo=(NASA([10.00, 1386.21],
                     [ 3.50995385E+00,  4.78670384E-02, -2.40781384E-05,
                       3.71046938E-09,  3.85442115E-13, -5.13784501E+04,
                       1.22017268E+01]),
                NASA([1386.21, 3000.00],
                     [ 1.24543146E+01,  3.02396862E-02, -1.38577031E-05,
                       3.05328904E-09, -2.63982457E-13, -5.46443334E+04,
                      -3.67061828E+01])))

species(name='HO2',
        atoms='H:1 O:2',
        thermo=(NASA([10.00, 891.11],
                     [ 4.02887004E+00, -1.75769289E-03,  1.08726004E-05,
                      -1.13812972E-08,  3.90113097E-12,  4.95165001E+02,
                       4.69302008E+00]),
                NASA([891.11, 3000.00],
                     [ 3.06571044E+00,  4.28505005E-03, -2.19325920E-06,
                       5.58882699E-10, -5.61246669E-14,  5.98557610E+02,
                       8.84564156E+00])))

species(name='CH3',
        atoms='C:1 H:3',
        thermo=(NASA([10.00, 616.77],
                     [ 3.98929952E+00,  5.45150461E-04,  9.01320092E-06,
                      -1.08320497E-08,  4.38985879E-12,  1.65859883E+04,
                       2.22446886E-01]),
                NASA([616.77, 3000.00],
                     [ 3.35928237E+00,  4.63117126E-03, -9.24365433E-07,
                      -9.02514624E-11,  3.56905106E-14,  1.66637014E+04,
                       2.95743732E+00])))

#-------------------------------------------------------------------------------
# Reaction data
#-------------------------------------------------------------------------------

# Reaction 1
chebyshev_reaction('aQOOH[O] (+ M) <=> aQOOHb (+ M)',
                   Tmin=180.0, Tmax=1500.0,
                   Pmin=(0.01, 'atm'), Pmax=(98.692, 'atm'),
                   coeffs=[[-5.78800e+00,  4.03400e+00, -6.06200e-01,  4.01300e-02, -1.08600e-03, -7.67700e-03,  1.41800e-02, -2.57500e-03],
                           [-5.94900e+00, -2.90000e-01,  8.06700e-01, -2.57000e-02, -1.32600e-02, -5.22800e-03, -1.05800e-02,  5.31300e-03],
                           [-3.14600e+00, -1.48700e-01,  8.22200e-02,  2.33800e-02, -2.62200e-03,  4.65500e-03, -8.66700e-04, -1.06700e-03],
                           [-1.47300e+00, -9.98400e-02, -3.71900e-02, -2.29300e-02, -4.81000e-03,  8.29600e-03,  2.41200e-03, -1.16900e-03],
                           [-7.26900e-01,  1.86400e-02, -3.89300e-02, -2.59900e-02, -2.98700e-03,  3.27300e-03,  1.78200e-03, -2.05000e-04],
                           [-3.47500e-01, -5.58200e-03, -1.27400e-02, -1.03600e-02,  1.59000e-04,  1.92800e-03,  5.43200e-04, -2.55900e-04],
                           [-1.56100e-01, -4.65900e-02, -1.40000e-02, -2.23700e-03,  1.95100e-03,  2.11800e-03,  5.99300e-04, -3.15400e-04],
                           [-6.37600e-02, -9.54800e-02, -2.93900e-03, -3.96500e-03, -2.02900e-03,  2.46900e-03,  5.11000e-04, -2.41000e-04],
                           [-1.08600e-01,  2.28200e-02, -4.11000e-02, -4.70500e-03,  3.03600e-03, -1.21600e-03, -2.35000e-05,  3.17800e-04],
                           [-4.87200e-03, -3.81000e-02,  3.66400e-03, -4.74800e-03, -3.38200e-03, -9.43000e-05, -2.50700e-04,  2.06600e-04]])

# Reaction 2
chebyshev_reaction('aQOOHg (+ M) <=> aQOOHb (+ M)',
                   Tmin=180.0, Tmax=1500.0,
                   Pmin=(0.01, 'atm'), Pmax=(98.692, 'atm'),
                   coeffs=[[-6.59800e+00,  3.34100e+00, -4.19900e-01,  1.02300e-01, -3.95900e-02, -4.03000e-02,  1.24500e-02,  6.05800e-03],
                           [-1.64200e+00,  5.92600e-01,  6.72900e-01, -1.23600e-02,  3.28300e-02,  1.05800e-02, -1.82500e-02, -3.34200e-03],
                           [-3.31200e+00, -1.09500e-01,  2.77600e-02, -3.76500e-02, -2.73100e-03,  2.26900e-02,  8.90000e-03, -1.50200e-03],
                           [-2.00500e+00, -2.97100e-01,  2.89700e-02, -2.22800e-02, -2.59300e-02,  7.98000e-04,  4.65000e-03,  2.10000e-03],
                           [-1.01900e+00, -1.53300e-01, -1.31800e-03,  1.57100e-02, -6.77500e-03, -8.27300e-03, -1.98300e-03,  8.17100e-04],
                           [-4.44800e-01, -9.18900e-02, -3.15700e-02,  1.56900e-02,  1.11300e-02, -4.41300e-04, -2.78400e-03, -1.46200e-03],
                           [-1.76400e-01, -4.56300e-02, -3.23200e-02,  8.07900e-04,  8.59100e-03,  4.00600e-03, -7.69200e-05, -9.77200e-04],
                           [-2.36900e-02, -6.60800e-02, -2.76800e-03, -7.01200e-03, -2.43000e-03,  3.97200e-03,  1.41400e-03, -2.35900e-04],
                           [-4.26400e-02,  4.23400e-02, -3.05300e-02, -2.09200e-03,  9.13400e-04, -2.00800e-03,  5.71000e-04,  6.61900e-04],
                           [ 2.12900e-02, -3.67300e-02,  8.02000e-03, -2.72900e-04, -2.58400e-03, -6.69900e-04, -5.19700e-04,  1.15300e-04]])

# Reaction 3
chebyshev_reaction('aRO2 (+ M) <=> aQOOHb (+ M)',
                   Tmin=180.0, Tmax=1500.0,
                   Pmin=(0.01, 'atm'), Pmax=(98.692, 'atm'),
                   coeffs=[[-6.26900e+00,  3.26900e+00, -6.60300e-01,  1.43300e-01,  2.22200e-02, -2.98400e-02,  5.42600e-03,  1.53600e-03],
                           [ 2.84900e+00,  3.28100e-02,  8.74100e-01, -8.51100e-02, -2.42800e-02,  6.56000e-03, -6.47000e-03,  2.15900e-03],
                           [-2.68200e+00, -1.18100e-01,  1.43100e-01,  3.40500e-02, -6.15200e-03,  1.02100e-03, -6.94200e-04, -3.18700e-05],
                           [-1.36000e+00, -2.02800e-01, -3.81600e-02, -8.87900e-03, -2.79000e-03,  5.27500e-03,  1.66000e-03, -5.08800e-04],
                           [-7.60500e-01, -5.95800e-02, -5.81200e-02, -1.67100e-02,  7.18800e-04,  1.69200e-03,  9.67300e-04, -1.94800e-06],
                           [-4.00300e-01, -3.92600e-02, -2.44900e-02, -2.62400e-03,  3.91900e-03,  8.64900e-04, -4.08300e-04, -3.14100e-04],
                           [-2.12100e-01, -5.35600e-02, -1.77900e-02,  2.61000e-03,  5.00700e-03,  1.71600e-03, -2.80500e-04, -5.34900e-04],
                           [-4.43200e-02, -1.01600e-01, -3.28800e-03, -2.43100e-03, -7.88400e-04,  2.84200e-03,  3.41200e-04, -4.63600e-04],
                           [-9.52200e-02,  3.84600e-02, -3.91700e-02, -7.76700e-03,  2.25000e-03, -4.46900e-04,  4.60000e-04,  2.17800e-04],
                           [ 4.23100e-02, -3.93600e-02,  4.82700e-03, -6.91500e-03, -4.39500e-03,  8.49900e-04,  2.40200e-04, -4.39000e-05]])

# Reaction 4
chebyshev_reaction('aadduct (+ M) <=> aQOOHb (+ M)',
                   Tmin=180.0, Tmax=1500.0,
                   Pmin=(0.01, 'atm'), Pmax=(98.692, 'atm'),
                   coeffs=[[-1.01900e+01,  2.96900e+00, -5.81600e-01,  8.80600e-02, -6.95700e-03, -2.69500e-02,  9.41100e-03,  1.80800e-03],
                           [ 2.88000e+00,  9.39300e-01,  8.89700e-01, -4.62100e-02, -1.44000e-02, -8.21800e-04, -9.38400e-03,  2.77900e-03],
                           [-2.72100e+00, -4.81200e-02,  1.17200e-01,  1.68600e-02,  6.70100e-03,  1.04600e-02, -3.41400e-04, -1.74200e-03],
                           [-1.66900e+00, -2.05900e-01,  3.69400e-03, -1.92100e-02, -1.05600e-02,  7.26100e-03,  4.12000e-03, -3.81600e-04],
                           [-9.52300e-01, -9.17300e-02, -3.36400e-03, -1.10900e-03, -4.60000e-03, -2.69300e-03,  7.53900e-04,  7.35400e-04],
                           [-5.04000e-01, -8.82700e-02, -4.19800e-03,  1.07600e-02,  5.36300e-03, -1.54200e-03, -1.58900e-03, -1.48300e-04],
                           [-2.40000e-01, -9.28600e-02, -2.46200e-02,  5.29700e-03,  7.26700e-03,  1.78700e-03, -6.96000e-04, -6.34200e-04],
                           [-6.28400e-02, -1.11800e-01, -1.55800e-02, -5.89800e-03,  4.24000e-04,  3.53600e-03,  4.22800e-04, -5.19100e-04],
                           [-5.04400e-02,  2.49600e-02, -4.55400e-02, -7.91500e-03,  2.96300e-03, -6.00700e-04,  3.39000e-04,  2.84400e-04],
                           [ 3.47100e-02, -2.88000e-02,  4.38600e-03, -7.75600e-03, -3.39000e-03,  7.42000e-04, -1.18100e-04, -6.91000e-05]])

# Reaction 5
chebyshev_reaction('O2 + aR (+ M) <=> aQOOHb (+ M)',
                   Tmin=180.0, Tmax=1500.0,
                   Pmin=(0.01, 'atm'), Pmax=(98.692, 'atm'),
                   coeffs=[[ 1.94300e+00,  5.16700e+00, -8.58300e-01,  4.45700e-01, -2.53700e-02, -6.25100e-02,  3.34500e-03, -8.89000e-04],
                           [-3.07100e+00, -4.31800e-01,  7.07700e-01, -4.52500e-01,  7.86600e-02,  3.93900e-02, -4.90500e-03,  5.50600e-03],
                           [-1.62600e+00, -1.27500e-01,  2.23500e-01, -9.92300e-02, -3.80900e-02,  1.97500e-02,  6.88300e-04, -1.03700e-03],
                           [-8.50100e-01, -9.73500e-02,  1.53700e-01, -1.09700e-02, -3.70300e-02,  2.55800e-03,  2.08000e-03, -1.14800e-03],
                           [-5.00600e-01, -1.10500e-02,  7.95600e-02,  2.47500e-02, -9.88600e-03, -3.41600e-03,  6.09200e-04, -3.52600e-04],
                           [-2.90400e-01, -5.51700e-02,  3.52000e-02,  2.82600e-02,  4.24700e-03, -1.10000e-03, -3.46700e-04, -3.33200e-04],
                           [-1.57000e-01, -9.10600e-02, -8.65200e-03,  1.73100e-02,  7.10300e-03,  1.13800e-03,  7.81200e-05, -3.10300e-04],
                           [-4.48500e-02, -1.29000e-01, -1.25800e-02,  1.70600e-03,  1.06800e-03,  2.70800e-03,  4.82100e-04, -2.51000e-04],
                           [-5.34900e-02,  3.23100e-03, -5.31200e-02, -4.82200e-03,  4.39700e-03, -8.09800e-04,  6.58700e-05,  2.28300e-04],
                           [ 2.52200e-02, -4.51800e-02, -5.68400e-03, -8.14900e-03, -2.84700e-03,  8.98400e-04, -1.60000e-04, -1.38600e-04]])
#  aQOOHb(+M) <=> aQOOH[O](+M)                         1.000e+00 0.000     0.000
#      TCHEB/ 180.000   1500.000 /
#      PCHEB/ 0.010     98.692   /
#      CHEB/ 10 8/
#      CHEB/ -1.500e+01   4.034e+00    -6.062e-01   4.013e-02    -1.086e-03  /
#      CHEB/ -7.677e-03   1.418e-02    -2.575e-03   -6.358e-02   -2.900e-01  /
#      CHEB/ 8.067e-01    -2.570e-02   -1.326e-02   -5.228e-03   -1.058e-02  /
#      CHEB/ 5.313e-03    -3.068e+00   -1.487e-01   8.222e-02    2.338e-02   /
#      CHEB/ -2.622e-03   4.655e-03    -8.667e-04   -1.067e-03   -1.427e+00  /
#      CHEB/ -9.984e-02   -3.719e-02   -2.293e-02   -4.810e-03   8.296e-03   /
#      CHEB/ 2.412e-03    -1.169e-03   -7.115e-01   1.864e-02    -3.893e-02  /
#      CHEB/ -2.599e-02   -2.987e-03   3.273e-03    1.782e-03    -2.050e-04  /
#      CHEB/ -3.428e-01   -5.582e-03   -1.274e-02   -1.036e-02   1.590e-04   /
#      CHEB/ 1.928e-03    5.432e-04    -2.559e-04   -1.543e-01   -4.659e-02  /
#      CHEB/ -1.400e-02   -2.237e-03   1.951e-03    2.118e-03    5.993e-04   /
#      CHEB/ -3.154e-04   -6.305e-02   -9.548e-02   -2.939e-03   -3.965e-03  /
#      CHEB/ -2.029e-03   2.469e-03    5.110e-04    -2.410e-04   -1.084e-01  /
#      CHEB/ 2.282e-02    -4.110e-02   -4.705e-03   3.036e-03    -1.216e-03  /
#      CHEB/ -2.350e-05   3.178e-04    -4.865e-03   -3.810e-02   3.664e-03   /
#      CHEB/ -4.748e-03   -3.382e-03   -9.430e-05   -2.507e-04   2.066e-04   /

# Reaction 6
chebyshev_reaction('aQOOHg (+ M) <=> aQOOH[O] (+ M)',
                   Tmin=180.0, Tmax=1500.0,
                   Pmin=(0.01, 'atm'), Pmax=(98.692, 'atm'),
                   coeffs=[[-6.37200e+00,  9.84300e-01, -3.68900e-02,  3.00600e-02,  5.41900e-03,  2.55300e-03,  7.92000e-04,  1.90900e-05],
                           [-1.86500e+00,  1.20400e+00, -9.82700e-02, -2.57500e-02, -9.02500e-03, -2.31200e-03, -2.85400e-04, -1.32800e-04],
                           [-3.20900e+00,  3.92800e-01,  1.02800e-01, -6.84300e-04, -3.02400e-03,  1.35600e-03,  5.31700e-04,  1.09400e-04],
                           [-2.03500e+00, -1.66500e-01,  8.35200e-02,  2.14400e-02, -4.22600e-03, -1.98800e-04,  3.21100e-04, -1.06400e-04],
                           [-1.03100e+00, -2.88700e-01, -1.11800e-02,  2.57400e-02,  1.57500e-03, -1.69900e-03, -6.39500e-06,  2.05200e-04],
                           [-4.14400e-01, -1.92200e-01, -5.53400e-02,  8.15100e-03,  6.25300e-03,  4.07100e-04, -4.03000e-04, -4.37600e-05],
                           [-1.45300e-01, -8.35600e-02, -4.58800e-02, -7.33000e-03,  2.81800e-03,  1.82100e-03, -3.18600e-04, -4.10500e-04],
                           [-5.68700e-02, -1.59100e-02, -1.50800e-02, -6.25500e-03, -2.45900e-03,  5.67000e-04,  5.90900e-04, -5.34800e-05],
                           [-6.21700e-02,  1.41700e-03,  3.99100e-04,  2.46100e-03, -1.91500e-03, -1.46300e-03,  3.74200e-05,  2.02000e-04],
                           [-3.67700e-02,  1.42600e-02, -7.80700e-04,  1.36200e-03,  3.59600e-04, -4.22300e-04, -7.64000e-05,  8.54500e-06]])

# Reaction 7
chebyshev_reaction('aRO2 (+ M) <=> aQOOH[O] (+ M)',
                   Tmin=180.0, Tmax=1500.0,
                   Pmin=(0.01, 'atm'), Pmax=(98.692, 'atm'),
                   coeffs=[[-7.09400e+00,  2.07000e+00, -2.02100e-02,  1.63300e-04, -1.44400e-03,  7.03400e-05,  7.21300e-05,  4.98800e-05],
                           [ 3.70600e+00,  1.93900e-01,  5.09200e-03,  1.27300e-02, -1.99900e-04, -9.28000e-05, -8.74800e-05, -3.36700e-05],
                           [-3.01900e+00,  9.16600e-02, -9.70500e-03,  2.17200e-03, -8.23700e-04,  8.59200e-05,  9.46300e-05,  7.35700e-07],
                           [-1.51200e+00,  3.28300e-02,  3.88200e-03,  2.88900e-03, -1.56300e-04, -1.46400e-04,  3.29700e-05,  4.75200e-05],
                           [-7.75500e-01, -2.14500e-02,  4.82600e-03,  2.27800e-03,  2.67300e-04,  1.53300e-04,  1.60100e-05, -4.43300e-05],
                           [-3.89000e-01, -5.37600e-02, -9.80800e-04,  2.36800e-03,  4.29300e-04,  1.65900e-04, -1.59900e-05, -4.87500e-05],
                           [-1.87300e-01, -5.74800e-02, -8.13600e-03,  1.62700e-03,  2.36000e-04,  6.99400e-05,  8.07300e-05,  2.35600e-05],
                           [-1.11400e-01, -4.49700e-02, -1.39500e-02,  5.34600e-04,  8.66300e-04,  1.42600e-04, -1.08000e-04, -8.24900e-05],
                           [-8.77200e-02, -1.91100e-02, -1.40900e-02, -2.45400e-03,  1.82200e-04,  2.80100e-04,  1.28100e-04, -1.67100e-05],
                           [-3.16300e-02, -3.12500e-03, -9.14900e-03, -1.48400e-03,  5.10500e-04, -1.37200e-04, -2.24100e-04, -1.73400e-05]])

# Reaction 8
chebyshev_reaction('aadduct (+ M) <=> aQOOH[O] (+ M)',
                   Tmin=180.0, Tmax=1500.0,
                   Pmin=(0.01, 'atm'), Pmax=(98.692, 'atm'),
                   coeffs=[[-1.00600e+01,  1.08000e+00, -1.29400e-01,  4.07500e-02, -3.05400e-03, -6.36400e-04,  6.55900e-04, -6.83400e-05],
                           [ 2.83300e+00,  1.11800e+00,  5.48800e-02, -3.07400e-02,  2.13100e-03, -1.00600e-04, -4.08400e-04,  3.61500e-04],
                           [-2.81400e+00,  4.17200e-01,  9.08800e-02,  7.72000e-03, -7.79800e-03, -1.26900e-03,  4.32300e-04,  8.74600e-05],
                           [-1.65900e+00, -2.12100e-03,  6.81200e-02,  2.92000e-02, -7.01200e-04, -1.91100e-03, -6.30400e-05,  1.19500e-04],
                           [-9.46400e-01, -1.71600e-01,  6.40900e-03,  2.45500e-02,  4.90200e-03, -9.99300e-04, -3.24200e-04,  1.25000e-04],
                           [-4.85700e-01, -1.84300e-01, -3.36300e-02,  9.57600e-03,  5.60800e-03,  6.10100e-04, -1.99900e-04, -5.39700e-05],
                           [-2.14600e-01, -1.28400e-01, -4.41800e-02, -1.74200e-03,  3.49300e-03,  1.25400e-03, -5.67800e-06, -1.61900e-04],
                           [-1.03000e-01, -6.16900e-02, -3.36400e-02, -5.80300e-03,  3.40700e-04,  3.87200e-04,  1.95700e-04,  9.41600e-05],
                           [-7.16900e-02, -1.10400e-02, -1.85000e-02, -5.41300e-03, -7.12100e-04, -2.05600e-04,  2.50700e-06,  8.87600e-05],
                           [-2.34500e-02,  1.80500e-02, -4.02000e-03, -5.57800e-03, -7.62000e-04,  1.82600e-04, -4.49100e-05, -8.10200e-05]])

# Reaction 9
chebyshev_reaction('O2 + aR (+ M) <=> aQOOH[O] (+ M)',
                   Tmin=180.0, Tmax=1500.0,
                   Pmin=(0.01, 'atm'), Pmax=(98.692, 'atm'),
                   coeffs=[[ 1.91100e+00,  2.39200e+00, -7.84200e-01,  2.29800e-01, -1.78700e-02, -9.17200e-03,  6.68000e-03, -1.65600e-03],
                           [-2.99300e+00,  7.86800e-01,  2.98500e-01, -2.87100e-01,  6.73700e-02,  2.20500e-03, -9.33900e-03,  3.01700e-03],
                           [-1.59800e+00,  3.19300e-01,  2.37100e-01, -6.07600e-02, -2.10700e-02,  1.46800e-02, -1.88300e-03, -1.27200e-03],
                           [-9.31600e-01,  5.64800e-04,  1.51200e-01,  1.31300e-02, -2.19600e-02,  3.73700e-03,  1.99500e-03, -9.14000e-04],
                           [-5.20300e-01, -1.13700e-01,  6.07600e-02,  3.10400e-02, -9.42800e-03, -2.21200e-03,  1.46100e-03,  6.83200e-05],
                           [-2.70300e-01, -1.36000e-01,  6.35100e-03,  2.35300e-02, -4.33400e-04, -1.94900e-03,  3.06000e-04,  7.26800e-05],
                           [-1.31100e-01, -1.10900e-01, -2.25100e-02,  1.29000e-02,  3.54700e-03, -5.55700e-04, -2.63000e-04, -2.17700e-04],
                           [-8.39600e-02, -7.05200e-02, -2.75000e-02,  3.29000e-03,  2.43600e-03, -2.95200e-05,  9.98000e-05, -1.13300e-06],
                           [-7.69100e-02, -3.25500e-02, -2.39500e-02, -6.37700e-04,  2.01200e-03, -1.14400e-04, -1.47600e-04,  2.50400e-05],
                           [-3.56500e-02,  8.15500e-03, -1.58600e-02, -7.39900e-03,  1.23700e-04,  1.02600e-03,  3.35000e-04, -1.38200e-04]])
#  aQOOHb(+M) <=> aQOOHg(+M)                           1.000e+00 0.000     0.000
#      TCHEB/ 180.000   1500.000 /
#      PCHEB/ 0.010     98.692   /
#      CHEB/ 10 8/
#      CHEB/ -1.446e+01   3.341e+00    -4.199e-01   1.023e-01    -3.959e-02  /
#      CHEB/ -4.030e-02   1.245e-02    6.058e-03    3.335e+00    5.926e-01   /
#      CHEB/ 6.729e-01    -1.236e-02   3.283e-02    1.058e-02    -1.825e-02  /
#      CHEB/ -3.342e-03   -3.089e+00   -1.095e-01   2.776e-02    -3.765e-02  /
#      CHEB/ -2.731e-03   2.269e-02    8.900e-03    -1.502e-03   -1.911e+00  /
#      CHEB/ -2.971e-01   2.897e-02    -2.228e-02   -2.593e-02   7.980e-04   /
#      CHEB/ 4.650e-03    2.100e-03    -9.911e-01   -1.533e-01   -1.318e-03  /
#      CHEB/ 1.571e-02    -6.775e-03   -8.273e-03   -1.983e-03   8.171e-04   /
#      CHEB/ -4.369e-01   -9.189e-02   -3.157e-02   1.569e-02    1.113e-02   /
#      CHEB/ -4.413e-04   -2.784e-03   -1.462e-03   -1.739e-01   -4.563e-02  /
#      CHEB/ -3.232e-02   8.079e-04    8.591e-03    4.006e-03    -7.692e-05  /
#      CHEB/ -9.772e-04   -2.296e-02   -6.608e-02   -2.768e-03   -7.012e-03  /
#      CHEB/ -2.430e-03   3.972e-03    1.414e-03    -2.359e-04   -4.262e-02  /
#      CHEB/ 4.234e-02    -3.053e-02   -2.092e-03   9.134e-04    -2.008e-03  /
#      CHEB/ 5.710e-04    6.619e-04    2.115e-02    -3.673e-02   8.020e-03   /
#      CHEB/ -2.729e-04   -2.584e-03   -6.699e-04   -5.197e-04   1.153e-04   /
#  aQOOH[O](+M) <=> aQOOHg(+M)                         1.000e+00 0.000     0.000
#      TCHEB/ 180.000   1500.000 /
#      PCHEB/ 0.010     98.692   /
#      CHEB/ 10 8/
#      CHEB/ -5.025e+00   9.843e-01    -3.689e-02   3.006e-02    5.419e-03   /
#      CHEB/ 2.553e-03    7.920e-04    1.909e-05    -2.772e+00   1.204e+00   /
#      CHEB/ -9.827e-02   -2.575e-02   -9.025e-03   -2.312e-03   -2.854e-04  /
#      CHEB/ -1.328e-04   -3.064e+00   3.928e-01    1.028e-01    -6.843e-04  /
#      CHEB/ -3.024e-03   1.356e-03    5.317e-04    1.094e-04    -1.987e+00  /
#      CHEB/ -1.665e-01   8.352e-02    2.144e-02    -4.226e-03   -1.988e-04  /
#      CHEB/ 3.211e-04    -1.064e-04   -1.019e+00   -2.887e-01   -1.118e-02  /
#      CHEB/ 2.574e-02    1.575e-03    -1.699e-03   -6.395e-06   2.052e-04   /