units(length='cm', time='s', quantity='mol', act_energy='kcal/mol')

ideal_gas(name='gas',
          elements="H D T C Ci O Oi N Ne Ar He Si S F Cl Br I X",
          species="""propene3ol       OH               disub_c4ether
                     H2O              disub_epoxy      gQOOHa
                     propene1ol       gQOOHb           ipropylOOH
                     galdoxy          galkene          CH2O
                     O2               gRO2             gQOOHg
                     gR               galdol           monosub_c4ether
                     HO2              gQOOH[O]""",
          reactions='all',
          initial_state=state(temperature=300.0, pressure=OneAtm))

#-------------------------------------------------------------------------------
# Element data
#-------------------------------------------------------------------------------

element(symbol='Ci', atomic_mass=13.003)
element(symbol='D', atomic_mass=2.014)
element(symbol='Oi', atomic_mass=18.0)
element(symbol='T', atomic_mass=3.016)
element(symbol='X', atomic_mass=195.083)
#-------------------------------------------------------------------------------
# Species data
#-------------------------------------------------------------------------------

species(name='propene3ol',
        atoms='C:3 H:6 O:1',
        thermo=(NASA([10.00, 444.81],
                     [ 3.92769709E+00,  4.89977303E-03,  1.13094874E-04,
                      -2.59008187E-07,  1.86205760E-10, -1.50043051E+04,
                       9.90805416E+00]),
                NASA([444.81, 3000.00],
                     [ 2.61720343E+00,  3.01777872E-02, -1.76511625E-05,
                       5.14864061E-09, -5.91153761E-13, -1.50212056E+04,
                       1.36683107E+01])))

species(name='OH',
        atoms='H:1 O:1',
        thermo=(NASA([10.00, 984.14],
                     [ 3.49686242E+00,  1.83973160E-04, -9.97634499E-07,
                       1.56942783E-09, -6.10128175E-13,  3.41673934E+03,
                       1.48093120E+00]),
                NASA([984.14, 3000.00],
                     [ 3.45221464E+00, -2.95124034E-04,  7.39418622E-07,
                      -2.89309866E-10,  3.53041498E-14,  3.45751599E+03,
                       1.85813897E+00])))

species(name='disub_c4ether',
        atoms='C:4 H:8 O:2',
        thermo=(NASA([10.00, 413.50],
                     [ 3.78241323E+00,  1.89501763E-02,  8.65302396E-05,
                      -1.80580575E-07,  1.13656264E-10, -3.55831493E+04,
                       1.09982450E+01]),
                NASA([413.50, 3000.00],
                     [ 4.29420885E-01,  5.13851903E-02, -3.11292293E-05,
                       9.11498284E-09, -1.03192718E-12, -3.53058550E+04,
                       2.42134976E+01])))

species(name='H2O',
        atoms='H:2 O:1',
        thermo=(NASA([10.00, 773.84],
                     [ 4.00473541E+00, -2.39729134E-04,  8.11862955E-07,
                       1.47891862E-09, -1.19783539E-12, -3.03533807E+04,
                      -9.96254147E-02]),
                NASA([773.84, 3000.00],
                     [ 3.52133374E+00,  1.05377009E-03,  6.40722099E-07,
                      -3.86240235E-10,  5.49243294E-14, -3.02424794E+04,
                       2.34173094E+00])))

species(name='disub_epoxy',
        atoms='C:4 H:8 O:2',
        thermo=(NASA([10.00, 549.41],
                     [ 3.89863211E+00,  5.97532637E-03,  1.66685676E-04,
                      -3.10743768E-07,  1.78330192E-10, -3.76769315E+04,
                       1.13847308E+01]),
                NASA([549.41, 3000.00],
                     [-6.40277648E-01,  6.05960003E-02, -4.13427220E-05,
                       1.31555461E-08, -1.57685017E-12, -3.75038147E+04,
                       2.76005436E+01])))

species(name='gQOOHa',
        atoms='C:4 H:9 O:3',
        thermo=(NASA([10.00, 160.74],
                     [ 3.80808147E+00,  2.31043884E-02,  5.26945984E-04,
                      -3.11500696E-06,  6.03881958E-09, -2.35787675E+04,
                       1.17645316E+01]),
                NASA([160.74, 3000.00],
                     [ 2.90630300E+00,  6.50241173E-02, -4.60073244E-05,
                       1.51330930E-08, -1.87074267E-12, -2.35749429E+04,
                       1.36838819E+01])))

species(name='propene1ol',
        atoms='C:3 H:6 O:1',
        thermo=(NASA([10.00, 459.42],
                     [ 3.91245344E+00,  5.85800161E-03,  1.15412006E-04,
                      -2.68014417E-07,  1.91800131E-10, -1.71125250E+04,
                       8.14807684E+00]),
                NASA([459.42, 3000.00],
                     [ 3.14049093E+00,  2.95550898E-02, -1.73843684E-05,
                       5.11506211E-09, -5.92966137E-13, -1.72207476E+04,
                       9.32215170E+00])))

species(name='gQOOHb',
        atoms='C:4 H:9 O:3',
        thermo=(NASA([10.00, 1018.67],
                     [ 3.99028351E+00,  4.29665712E-02,  2.28338778E-05,
                      -5.67914439E-08,  2.29383258E-11, -2.38446623E+04,
                       1.20326731E+01]),
                NASA([1018.67, 3000.00],
                     [ 1.38304153E+01,  3.88527019E-02, -2.19473905E-05,
                       5.78719895E-09, -5.85097740E-13, -2.76407470E+04,
                      -4.44147388E+01])))

species(name='ipropylOOH',
        atoms='C:3 H:7 O:2',
        thermo=(NASA([10.00, 405.01],
                     [ 3.30075623E+00,  7.58672756E-02, -3.35754269E-04,
                       8.05972164E-07, -6.68864582E-10, -1.66942054E+03,
                       1.43372849E+01]),
                NASA([405.01, 3000.00],
                     [ 2.51742509E+00,  3.72760950E-02, -2.12450220E-05,
                       5.83593926E-09, -6.22110649E-13, -1.22601294E+03,
                       2.20991392E+01])))

species(name='galdoxy',
        atoms='C:4 H:7 O:2',
        thermo=(NASA([10.00, 209.62],
                     [ 3.82641108E+00,  1.84758886E-02,  3.43073800E-04,
                      -1.82817005E-06,  2.98516720E-09, -1.90758317E+04,
                       1.17972706E+01]),
                NASA([209.62, 3000.00],
                     [ 4.22049016E+00,  4.03370149E-02, -2.36129482E-05,
                       6.72979114E-09, -7.47862493E-13, -1.91569015E+04,
                       8.97211724E+00])))

species(name='galkene',
        atoms='C:4 H:8 O:1',
        thermo=(NASA([10.00, 383.47],
                     [ 3.84035604E+00,  1.20378740E-02,  1.87486319E-04,
                      -5.44759148E-07,  4.80711015E-10, -2.06765030E+04,
                       1.02570291E+01]),
                NASA([383.47, 3000.00],
                     [ 4.00413385E+00,  3.79025144E-02, -2.15435710E-05,
                       6.15213311E-09, -6.97446345E-13, -2.08917923E+04,
                       6.98052628E+00])))

species(name='CH2O',
        atoms='C:1 H:2 O:1',
        thermo=(NASA([10.00, 601.31],
                     [ 4.03190845E+00, -1.93233367E-03,  8.89743345E-06,
                       2.98105926E-09, -7.90813886E-12, -1.42276270E+04,
                       3.47574660E+00]),
                NASA([601.31, 3000.00],
                     [ 1.40134195E+00,  9.48858016E-03, -4.43088317E-06,
                       9.48452194E-10, -7.43790219E-14, -1.38013869E+04,
                       1.57423780E+01])))

species(name='O2',
        atoms='O:2',
        thermo=(NASA([10.00, 605.96],
                     [ 3.50743498E+00, -4.43860349E-04,  1.45938058E-06,
                       1.61509333E-09, -2.32050052E-12, -9.24756224E+02,
                       4.72183634E+00]),
                NASA([605.96, 3000.00],
                     [ 2.87462882E+00,  2.17840991E-03, -1.18262921E-06,
                       2.86910493E-10, -2.53297146E-14, -8.19517838E+02,
                       7.69331810E+00])))

species(name='gRO2',
        atoms='C:4 H:9 O:3',
        thermo=(NASA([10.00, 177.33],
                     [ 3.70632176E+00,  3.49733664E-02,  4.64036392E-04,
                      -3.18637835E-06,  6.38178607E-09, -2.95812841E+04,
                       1.24459269E+01]),
                NASA([177.33, 3000.00],
                     [ 4.82062697E+00,  5.17179689E-02, -3.18386818E-05,
                       9.52247045E-09, -1.10180288E-12, -2.96866547E+04,
                       7.14082953E+00])))

species(name='gQOOHg',
        atoms='C:4 H:9 O:3',
        thermo=(NASA([10.00, 475.03],
                     [ 3.42273720E+00,  4.98344215E-02,  6.47820920E-05,
                      -2.49842966E-07,  1.98636537E-10, -2.02827575E+04,
                       1.41578583E+01]),
                NASA([475.03, 3000.00],
                     [ 5.94049074E+00,  5.53778585E-02, -3.71708255E-05,
                       1.17540477E-08, -1.40812095E-12, -2.08237118E+04,
                       7.09201218E-01])))

species(name='gR',
        atoms='C:4 H:9 O:1',
        thermo=(NASA([10.00, 638.24],
                     [ 3.37074633E+00,  5.17529751E-02, -6.54872940E-05,
                       6.88084237E-08, -3.21569794E-11, -8.63603998E+03,
                       1.14339669E+01]),
                NASA([638.24, 3000.00],
                     [ 3.99410860E+00,  4.06314915E-02, -2.23932510E-05,
                       6.08356263E-09, -6.49884708E-13, -8.56866526E+03,
                       9.85769960E+00])))

species(name='galdol',
        atoms='C:4 H:8 O:2',
        thermo=(NASA([10.00, 506.68],
                     [ 3.85380874E+00,  9.21272695E-03,  1.86712348E-04,
                      -3.96417049E-07,  2.55528268E-10, -4.49973690E+04,
                       1.24312743E+01]),
                NASA([506.68, 3000.00],
                     [ 1.49710213E+00,  5.65979142E-02, -3.87709084E-05,
                       1.23682052E-08, -1.48287964E-12, -4.51279784E+04,
                       1.85531759E+01])))

species(name='monosub_c4ether',
        atoms='C:4 H:8 O:2',
        thermo=(NASA([10.00, 380.36],
                     [ 3.47743996E+00,  6.08051311E-02, -2.78518945E-04,
                       8.23182713E-07, -7.87158031E-10, -3.19551114E+04,
                       1.06415154E+01]),
                NASA([380.36, 3000.00],
                     [-1.09346901E+00,  5.35985968E-02, -3.21081420E-05,
                       9.20818293E-09, -1.01830294E-12, -3.12075514E+04,
                       3.35312368E+01])))

species(name='HO2',
        atoms='H:1 O:2',
        thermo=(NASA([10.00, 891.11],
                     [ 4.02887004E+00, -1.75769289E-03,  1.08726004E-05,
                      -1.13812972E-08,  3.90113097E-12,  4.95165001E+02,
                       4.69302008E+00]),
                NASA([891.11, 3000.00],
                     [ 3.06571044E+00,  4.28505005E-03, -2.19325920E-06,
                       5.58882699E-10, -5.61246669E-14,  5.98557610E+02,
                       8.84564156E+00])))

species(name='gQOOH[O]',
        atoms='C:4 H:9 O:3',
        thermo=(NASA([10.00, 535.23],
                     [ 3.83107445E+00,  1.02302002E-02,  2.29377261E-04,
                      -4.59095575E-07,  2.77765018E-10, -1.62742302E+04,
                       1.41034859E+01]),
                NASA([535.23, 3000.00],
                     [-4.19283096E-01,  7.69784620E-02, -5.57279000E-05,
                       1.81378295E-08, -2.18295635E-12, -1.63203435E+04,
                       2.72711816E+01])))

#-------------------------------------------------------------------------------
# Reaction data
#-------------------------------------------------------------------------------

# Reaction 1
chebyshev_reaction('gQOOH[O] (+ M) <=> gRO2 (+ M)',
                   Tmin=180.0, Tmax=1500.0,
                   Pmin=(0.01, 'atm'), Pmax=(98.692, 'atm'),
                   coeffs=[[ 5.22900e+00,  1.87500e+00, -1.10900e-01, -2.83100e-02, -5.34300e-03,  1.07400e-03,  1.05200e-03,  3.00400e-04],
                           [-5.85100e+00,  3.79200e-01,  7.67600e-02,  2.38300e-02,  9.23000e-04, -1.66500e-04, -5.46000e-04, -2.20500e-04],
                           [-3.21900e+00,  7.20900e-03, -5.39500e-02, -5.79900e-03,  2.68200e-03,  2.73700e-03,  9.51000e-04, -1.48400e-05],
                           [-1.60100e+00,  1.17800e-01,  2.09200e-02,  1.60200e-03, -1.94000e-03, -1.23000e-03, -2.85500e-04,  3.21400e-05],
                           [-8.35400e-01,  9.50200e-02,  4.97800e-02,  1.37500e-02,  3.15500e-03, -4.02200e-04, -6.24500e-04, -2.92300e-04],
                           [-4.58700e-01,  1.84400e-02,  3.23700e-02,  6.77600e-03,  1.63500e-03,  2.52800e-04,  6.83300e-05,  1.41800e-05],
                           [-2.49400e-01, -2.51000e-02,  1.94700e-02,  3.13600e-03, -5.45200e-04, -4.46900e-04, -1.36100e-04,  2.29700e-05],
                           [-1.32300e-01, -4.47300e-02,  1.11000e-02,  5.31600e-03,  6.32700e-04, -4.39800e-05, -2.17100e-04, -1.36100e-04],
                           [-6.87100e-02, -5.15100e-02,  8.36100e-04,  5.99600e-03,  1.73200e-03,  4.55200e-04, -2.31500e-05, -9.30400e-05],
                           [-3.29300e-02, -4.62300e-02, -7.81400e-03,  4.66800e-03,  1.82800e-03,  2.90700e-04, -5.72700e-05, -5.29100e-05]])

# Reaction 2
chebyshev_reaction('gQOOHa (+ M) <=> gRO2 (+ M)',
                   Tmin=180.0, Tmax=1500.0,
                   Pmin=(0.01, 'atm'), Pmax=(98.692, 'atm'),
                   coeffs=[[ 4.06700e+00,  9.09800e-01, -5.37900e-02,  4.95100e-03, -5.34100e-05, -3.16700e-04, -1.17800e-06,  7.23700e-05],
                           [-1.21900e+00,  1.30700e+00,  4.28300e-03, -5.68800e-03,  9.19700e-04, -6.17200e-04,  4.64400e-06,  1.25400e-04],
                           [-2.88200e+00,  4.26400e-01,  1.06100e-01,  3.11200e-03, -4.16900e-03, -1.20400e-04,  1.12700e-04,  4.67100e-05],
                           [-1.69500e+00, -8.50800e-02,  6.51100e-02,  2.36400e-02, -2.73200e-03, -1.54900e-03,  1.45600e-04,  8.77800e-05],
                           [-8.26700e-01, -1.52200e-01, -1.17300e-02,  1.89900e-02,  4.03400e-03, -1.53400e-03, -4.25800e-04,  1.00200e-04],
                           [-3.53700e-01, -4.97900e-02, -2.67300e-02,  3.14700e-04,  4.59300e-03,  4.62400e-04, -5.40600e-04, -1.02600e-04],
                           [-1.63400e-01,  1.66400e-02,  4.66100e-03, -5.18600e-03, -4.72800e-04,  9.82000e-04,  7.92200e-05, -1.65900e-04],
                           [-1.02800e-01,  6.47200e-03,  2.76700e-02,  4.92500e-03, -2.55700e-03, -5.69800e-04,  2.91000e-04,  3.56100e-05],
                           [-7.76600e-02, -3.52600e-02,  1.97800e-02,  1.47200e-02,  9.51900e-04, -1.54900e-03, -3.10200e-04,  1.17000e-04],
                           [-5.28500e-02, -6.08100e-02, -4.47800e-03,  1.33800e-02,  5.25400e-03, -5.78500e-04, -8.55700e-04, -9.66200e-05]])

# Reaction 3
chebyshev_reaction('gQOOHg (+ M) <=> gRO2 (+ M)',
                   Tmin=180.0, Tmax=1500.0,
                   Pmin=(0.01, 'atm'), Pmax=(98.692, 'atm'),
                   coeffs=[[ 4.01300e+00,  1.59400e+00, -1.29900e-01, -1.05400e-03,  7.94600e-03, -4.28700e-04, -1.18000e-03,  1.37000e-04],
                           [-5.55800e+00,  8.24300e-01,  2.07200e-01,  6.32400e-03, -1.52000e-02, -1.84000e-04,  1.90500e-03, -1.56500e-04],
                           [-3.03200e+00, -1.43700e-01,  2.54100e-03,  4.01900e-02,  8.38100e-03, -4.43500e-03, -1.57400e-03,  6.79400e-04],
                           [-1.32500e+00,  3.87300e-03, -3.55700e-02, -1.13900e-02,  3.09100e-03,  3.24800e-03, -1.31800e-04, -6.87400e-04],
                           [-6.26500e-01,  9.15200e-02,  4.55600e-02,  4.63400e-03, -7.25400e-03, -2.36500e-03,  1.03000e-03,  5.23400e-04],
                           [-3.73300e-01, -3.88700e-03,  3.64800e-02,  2.28000e-02,  4.35100e-03, -2.52500e-03, -1.50400e-03,  1.09500e-04],
                           [-2.29100e-01, -5.98100e-02,  1.10500e-04,  7.94800e-03,  5.52300e-03,  1.86300e-03, -2.83200e-04, -5.77400e-04],
                           [-1.25200e-01, -5.09300e-02, -1.00700e-03,  1.79400e-03, -6.57300e-04, -4.47200e-05,  5.86000e-04,  2.31600e-04],
                           [-6.56700e-02, -4.17900e-02,  3.36100e-03,  8.42200e-03,  1.40400e-03, -1.53800e-03, -8.25000e-04,  1.10900e-04],
                           [-3.62900e-02, -4.35400e-02, -6.41200e-03,  7.90600e-03,  4.74100e-03,  4.94600e-04, -7.58000e-04, -4.20100e-04]])

# Reaction 4
chebyshev_reaction('gQOOHb (+ M) <=> gRO2 (+ M)',
                   Tmin=180.0, Tmax=1500.0,
                   Pmin=(0.01, 'atm'), Pmax=(98.692, 'atm'),
                   coeffs=[[-4.01000e+00,  1.24800e+00, -9.55900e-02, -9.07000e-03,  5.01300e-03, -3.13100e-04, -4.43500e-04,  1.28200e-04],
                           [ 5.47900e+00,  1.83900e+00, -5.95400e-02, -1.43200e-02,  2.60100e-03, -1.88500e-05, -2.97300e-04,  8.52000e-05],
                           [-1.71000e+00,  6.20700e-01,  1.23200e-01,  5.84500e-03, -8.91100e-03,  4.08300e-04,  4.95000e-04, -1.16800e-04],
                           [-1.56300e+00, -8.87500e-02,  1.29400e-01,  2.44100e-02, -6.81100e-03, -5.25300e-04,  2.43300e-04, -4.55500e-05],
                           [-9.17300e-01, -1.84000e-01,  3.84700e-02,  1.85400e-02,  2.86000e-03, -5.34300e-04, -4.73800e-04,  1.93300e-05],
                           [-4.41600e-01, -1.01900e-01, -7.51000e-03,  3.18500e-03,  4.73300e-03,  5.86300e-04, -3.40900e-04, -9.08600e-05],
                           [-2.30900e-01, -6.22900e-02, -1.96900e-03, -1.28400e-03,  2.85300e-04,  6.64100e-04,  2.36200e-04, -1.17100e-04],
                           [-1.24500e-01, -4.73800e-02,  7.83200e-03,  2.80200e-03, -1.67000e-03, -2.19400e-04,  2.14000e-04, -2.68100e-05],
                           [-5.57400e-02, -3.41400e-02,  6.84100e-03,  6.64700e-03, -1.25900e-04, -6.36300e-04, -1.99100e-04, -1.85500e-05],
                           [-2.23600e-02, -2.91600e-02,  5.89600e-04,  7.79500e-03,  1.73900e-03, -4.34500e-04, -3.68100e-04, -7.41100e-05]])

# Reaction 5
chebyshev_reaction('O2 + gR (+ M) <=> gRO2 (+ M)',
                   Tmin=180.0, Tmax=1500.0,
                   Pmin=(0.01, 'atm'), Pmax=(98.692, 'atm'),
                   coeffs=[[ 1.13500e+01,  6.45000e-01, -1.56100e-01,  3.52700e-02, -8.55200e-03,  1.76400e-03, -3.33200e-04,  9.65900e-05],
                           [-1.78200e+00,  1.06800e+00, -1.96000e-01,  2.15200e-02,  6.75800e-04, -1.97900e-03,  7.73000e-04, -1.16200e-04],
                           [-1.12200e+00,  7.33700e-01, -6.41200e-02, -1.38400e-02,  6.93800e-03, -2.03300e-03,  3.13300e-04,  7.62500e-05],
                           [-7.48800e-01,  4.13600e-01,  3.03200e-02, -2.53500e-02,  4.62100e-03, -1.82100e-04, -2.39400e-04,  1.25500e-04],
                           [-4.95800e-01,  1.82100e-01,  6.78500e-02, -1.70200e-02, -7.00800e-04,  1.07200e-03, -2.60400e-04, -2.72300e-06],
                           [-3.20100e-01,  4.18600e-02,  6.61500e-02, -3.32600e-03, -3.57400e-03,  8.44300e-04,  4.20500e-05, -1.17800e-04],
                           [-2.00200e-01, -3.01000e-02,  4.70900e-02,  6.74200e-03, -3.18100e-03, -1.90000e-05,  2.05200e-04, -1.16700e-04],
                           [-1.19800e-01, -5.87500e-02,  2.51700e-02,  1.10200e-02, -1.14300e-03, -6.17200e-04,  1.03700e-04, -5.66200e-05],
                           [-6.71000e-02, -6.24900e-02,  6.94100e-03,  1.09100e-02,  9.04100e-04, -7.02900e-04, -1.07000e-04, -1.76500e-05],
                           [-3.36600e-02, -5.32300e-02, -5.67300e-03,  8.41000e-03,  2.20900e-03, -4.75700e-04, -2.58300e-04, -1.49400e-05]])
#  gRO2(+M) <=> gQOOH[O](+M)                           1.000e+00 0.000     0.000
#      TCHEB/ 180.000   1500.000 /
#      PCHEB/ 0.010     98.692   /
#      CHEB/ 10 8/
#      CHEB/ -1.324e+01   1.875e+00    -1.109e-01   -2.831e-02   -5.343e-03  /
#      CHEB/ 1.074e-03    1.052e-03    3.004e-04    8.012e+00    3.792e-01   /
#      CHEB/ 7.676e-02    2.383e-02    9.230e-04    -1.665e-04   -5.460e-04  /
#      CHEB/ -2.205e-04   -3.046e+00   7.209e-03    -5.395e-02   -5.799e-03  /
#      CHEB/ 2.682e-03    2.737e-03    9.510e-04    -1.484e-05   -1.476e+00  /
#      CHEB/ 1.178e-01    2.092e-02    1.602e-03    -1.940e-03   -1.230e-03  /
#      CHEB/ -2.855e-04   3.214e-05    -7.817e-01   9.502e-02    4.978e-02   /
#      CHEB/ 1.375e-02    3.155e-03    -4.022e-04   -6.245e-04   -2.923e-04  /
#      CHEB/ -4.396e-01   1.844e-02    3.237e-02    6.776e-03    1.635e-03   /
#      CHEB/ 2.528e-04    6.833e-05    1.418e-05    -2.432e-01   -2.510e-02  /
#      CHEB/ 1.947e-02    3.136e-03    -5.452e-04   -4.469e-04   -1.361e-04  /
#      CHEB/ 2.297e-05    -1.304e-01   -4.473e-02   1.110e-02    5.316e-03   /
#      CHEB/ 6.327e-04    -4.398e-05   -2.171e-04   -1.361e-04   -6.825e-02  /
#      CHEB/ -5.151e-02   8.361e-04    5.996e-03    1.732e-03    4.552e-04   /
#      CHEB/ -2.315e-05   -9.304e-05   -3.296e-02   -4.623e-02   -7.814e-03  /
#      CHEB/ 4.668e-03    1.828e-03    2.907e-04    -5.727e-05   -5.291e-05  /

# Reaction 6
chebyshev_reaction('gQOOHa (+ M) <=> gQOOH[O] (+ M)',
                   Tmin=180.0, Tmax=1500.0,
                   Pmin=(0.01, 'atm'), Pmax=(98.692, 'atm'),
                   coeffs=[[-1.04900e+01,  1.39400e+00, -3.21300e-01,  2.18000e-03, -6.54400e-03, -5.73100e-03,  3.37000e-03,  8.24200e-04],
                           [ 5.75200e-01,  1.16300e+00,  2.30500e-01, -2.93000e-02,  1.08400e-02,  5.57500e-03, -5.01000e-03,  3.52100e-05],
                           [-4.03800e+00, -3.51200e-02,  4.59200e-02,  4.19400e-03, -8.23700e-03,  5.96400e-03,  2.47200e-03, -1.09700e-03],
                           [-1.98100e+00, -9.24800e-02,  2.71800e-02,  2.91600e-02, -6.21700e-03, -5.05300e-03,  8.64300e-04,  3.71200e-04],
                           [-8.87100e-01, -1.64500e-02,  8.51100e-04,  2.46400e-02,  8.32700e-03, -3.08500e-03, -1.43100e-03,  1.81600e-04],
                           [-3.78200e-01,  3.57000e-02, -1.01400e-02, -3.25300e-03,  5.89000e-03,  1.29100e-03, -6.76500e-04, -4.63300e-05],
                           [-1.72500e-01,  4.87500e-02,  1.58500e-02, -9.60400e-03, -2.21600e-03,  9.65800e-04,  3.87200e-05, -1.34100e-04],
                           [-1.05400e-01,  1.03400e-02,  3.48300e-02,  4.68800e-03, -3.09300e-03, -6.38600e-04,  1.04900e-04, -5.11000e-05],
                           [-8.02400e-02, -4.36500e-02,  2.22900e-02,  1.58600e-02,  1.26600e-03, -1.16800e-03, -3.01700e-04,  4.96100e-05],
                           [-5.53700e-02, -7.01100e-02, -4.96900e-03,  1.39200e-02,  5.12900e-03, -3.08100e-04, -7.43600e-04, -1.40300e-04]])

# Reaction 7
chebyshev_reaction('gQOOHg (+ M) <=> gQOOH[O] (+ M)',
                   Tmin=180.0, Tmax=1500.0,
                   Pmin=(0.01, 'atm'), Pmax=(98.692, 'atm'),
                   coeffs=[[-1.02900e+01,  2.71200e+00, -4.60100e-01, -8.69900e-02,  3.89500e-02, -4.82900e-03, -4.86800e-03,  3.34400e-03],
                           [-4.18000e+00, -2.70800e-02,  5.81400e-01,  6.39000e-02, -6.06700e-02,  9.46100e-03,  6.61300e-03, -4.44600e-03],
                           [-4.06100e+00, -5.91300e-01, -1.49800e-01,  5.50000e-02,  2.25200e-02, -4.44900e-03, -1.44400e-03,  1.34000e-03],
                           [-1.58800e+00,  6.93300e-02, -8.79700e-02, -2.37500e-02,  4.79500e-03,  2.13100e-03, -6.46200e-04, -5.23500e-04],
                           [-6.97600e-01,  2.52700e-01,  7.76700e-02,  3.81100e-03, -7.15500e-03, -2.83500e-03,  5.70400e-04,  4.93300e-04],
                           [-4.04600e-01,  8.22500e-02,  6.42900e-02,  2.12800e-02,  3.67200e-03, -2.36000e-03, -1.38900e-03,  2.82200e-04],
                           [-2.42900e-01, -3.21500e-02,  1.36600e-02,  4.78300e-03,  4.13000e-03,  1.85000e-03, -4.74800e-04, -6.57200e-04],
                           [-1.30300e-01, -5.08300e-02,  5.74600e-03,  1.28100e-03, -9.35600e-04,  3.59300e-04,  4.37000e-04, -2.73400e-05],
                           [-6.84800e-02, -5.21400e-02,  5.21500e-03,  9.14100e-03,  1.44200e-03, -9.41000e-04, -6.23700e-04,  2.74900e-05],
                           [-3.78600e-02, -5.34600e-02, -7.21900e-03,  8.38600e-03,  4.22200e-03,  6.60400e-04, -5.21700e-04, -3.79400e-04]])

# Reaction 8
chebyshev_reaction('gQOOHb (+ M) <=> gQOOH[O] (+ M)',
                   Tmin=180.0, Tmax=1500.0,
                   Pmin=(0.01, 'atm'), Pmax=(98.692, 'atm'),
                   coeffs=[[-1.64700e+01,  1.70400e+00, -8.11100e-02, -5.39200e-02, -2.75400e-02, -2.14800e-03,  3.30100e-03,  1.62400e-03],
                           [ 4.96000e+00,  1.57800e+00, -5.28300e-02,  4.67300e-02,  2.82100e-02, -1.32900e-03, -3.38900e-03, -8.90200e-04],
                           [-2.82600e+00,  9.73300e-02, -2.90200e-02, -2.72700e-02,  7.44800e-03,  9.31600e-03,  3.95800e-04, -1.13400e-03],
                           [-1.66900e+00,  2.27600e-02,  1.31500e-01,  1.12900e-03, -1.74900e-02, -2.23100e-03,  7.69500e-04,  3.83500e-04],
                           [-8.70200e-01, -1.95300e-02,  8.59100e-02,  3.08400e-02,  4.93300e-04, -2.90900e-03, -6.04300e-04,  7.12800e-05],
                           [-4.65300e-01, -6.87100e-02,  1.23700e-02,  1.45500e-02,  6.18800e-03,  3.21500e-04, -3.47200e-04, -6.17700e-05],
                           [-2.47800e-01, -6.00900e-02,  4.63700e-04,  7.84200e-04,  1.92400e-04,  2.30600e-04,  1.17600e-05, -6.25200e-05],
                           [-1.27100e-01, -4.19000e-02,  7.45200e-03,  1.98100e-03, -1.35000e-03, -2.49100e-04,  2.66100e-05, -6.20200e-05],
                           [-6.32400e-02, -3.61800e-02,  6.33300e-03,  5.94600e-03,  3.34700e-04, -2.99900e-04, -1.26300e-04, -1.18500e-05],
                           [-2.99800e-02, -3.40500e-02, -4.36300e-04,  7.22500e-03,  1.70800e-03, -3.29100e-04, -3.10700e-04, -5.62900e-05]])

# Reaction 9
chebyshev_reaction('O2 + gR (+ M) <=> gQOOH[O] (+ M)',
                   Tmin=180.0, Tmax=1500.0,
                   Pmin=(0.01, 'atm'), Pmax=(98.692, 'atm'),
                   coeffs=[[-2.32000e-01,  1.53500e+00,  9.85200e-02, -1.15000e-02, -5.81500e-02, -8.04400e-03,  3.83600e-03,  2.97700e-03],
                           [-3.55300e+00,  3.93700e-02, -4.54500e-01,  7.73700e-02,  6.18400e-02,  8.12200e-03, -3.05700e-03, -3.49000e-03],
                           [-1.78700e+00,  5.18000e-01, -1.84000e-01, -6.06900e-02,  5.92700e-03,  9.00300e-04,  1.61600e-03,  2.26700e-04],
                           [-8.56600e-01,  5.27300e-01,  6.23800e-02, -4.10000e-02, -4.17700e-03, -2.83200e-03,  1.27800e-04,  3.64400e-04],
                           [-4.94000e-01,  2.74700e-01,  1.24700e-01, -3.57900e-03,  1.16000e-03, -4.68500e-04, -7.34100e-04, -2.00700e-04],
                           [-3.18400e-01,  6.55700e-02,  8.82700e-02,  2.42000e-03, -1.45900e-03,  6.48200e-04,  2.73500e-04,  2.01500e-05],
                           [-2.02800e-01, -2.95800e-02,  5.23800e-02,  5.83900e-03, -3.41300e-03, -8.22400e-04,  1.32100e-04,  1.30900e-05],
                           [-1.24600e-01, -6.18100e-02,  2.76000e-02,  1.05100e-02, -7.96700e-04, -1.01600e-03, -9.59700e-05, -1.00500e-04],
                           [-7.31100e-02, -6.76700e-02,  7.32600e-03,  1.05700e-02,  1.67800e-03, -5.07900e-04, -7.21100e-05, -2.17500e-05],
                           [-3.79700e-02, -5.82800e-02, -6.53700e-03,  7.56100e-03,  2.48800e-03, -3.47600e-04, -2.14700e-04,  1.00600e-05]])
#  gRO2(+M) <=> gQOOHa(+M)                             1.000e+00 0.000     0.000
#      TCHEB/ 180.000   1500.000 /
#      PCHEB/ 0.010     98.692   /
#      CHEB/ 10 8/
#      CHEB/ -4.352e+00   9.098e-01    -5.379e-02   4.951e-03    -5.341e-05  /
#      CHEB/ -3.167e-04   -1.178e-06   7.237e-05    5.373e+00    1.307e+00   /
#      CHEB/ 4.283e-03    -5.688e-03   9.197e-04    -6.172e-04   4.644e-06   /
#      CHEB/ 1.254e-04    -2.720e+00   4.264e-01    1.061e-01    3.112e-03   /
#      CHEB/ -4.169e-03   -1.204e-04   1.127e-04    4.671e-05    -1.621e+00  /
#      CHEB/ -8.508e-02   6.511e-02    2.364e-02    -2.732e-03   -1.549e-03  /
#      CHEB/ 1.456e-04    8.778e-05    -7.981e-01   -1.522e-01   -1.173e-02  /
#      CHEB/ 1.899e-02    4.034e-03    -1.534e-03   -4.258e-04   1.002e-04   /
#      CHEB/ -3.439e-01   -4.979e-02   -2.673e-02   3.147e-04    4.593e-03   /
#      CHEB/ 4.624e-04    -5.406e-04   -1.026e-04   -1.605e-01   1.664e-02   /
#      CHEB/ 4.661e-03    -5.186e-03   -4.728e-04   9.820e-04    7.922e-05   /
#      CHEB/ -1.659e-04   -1.022e-01   6.472e-03    2.767e-02    4.925e-03   /
#      CHEB/ -2.557e-03   -5.698e-04   2.910e-04    3.561e-05    -7.767e-02  /
#      CHEB/ -3.526e-02   1.978e-02    1.472e-02    9.519e-04    -1.549e-03  /
#      CHEB/ -3.102e-04   1.170e-04    -5.297e-02   -6.081e-02   -4.478e-03  /
#      CHEB/ 1.338e-02    5.254e-03    -5.785e-04   -8.557e-04   -9.662e-05  /
#  gQOOH[O](+M) <=> gQOOHa(+M)                         1.000e+00 0.000     0.000
#      TCHEB/ 180.000   1500.000 /
#      PCHEB/ 0.010     98.692   /
#      CHEB/ 10 8/
#      CHEB/ -4.482e-01   1.394e+00    -3.213e-01   2.180e-03    -6.544e-03  /
#      CHEB/ -5.731e-03   3.370e-03    8.242e-04    -6.696e+00   1.163e+00   /
#      CHEB/ 2.305e-01    -2.930e-02   1.084e-02    5.575e-03    -5.010e-03  /
#      CHEB/ 3.521e-05    -4.049e+00   -3.512e-02   4.592e-02    4.194e-03   /
#      CHEB/ -8.237e-03   5.964e-03    2.472e-03    -1.097e-03   -2.031e+00  /
#      CHEB/ -9.248e-02   2.718e-02    2.916e-02    -6.217e-03   -5.053e-03  /
#      CHEB/ 8.643e-04    3.712e-04    -9.122e-01   -1.645e-02   8.511e-04   /
#      CHEB/ 2.464e-02    8.327e-03    -3.085e-03   -1.431e-03   1.816e-04   /
#      CHEB/ -3.874e-01   3.570e-02    -1.014e-02   -3.253e-03   5.890e-03   /
#      CHEB/ 1.291e-03    -6.765e-04   -4.633e-05   -1.758e-01   4.875e-02   /
#      CHEB/ 1.585e-02    -9.604e-03   -2.216e-03   9.658e-04    3.872e-05   /
#      CHEB/ -1.341e-04   -1.067e-01   1.034e-02    3.483e-02    4.688e-03   /
#      CHEB/ -3.093e-03   -6.386e-04   1.049e-04    -5.110e-05   -8.071e-02  /
#      CHEB/ -4.365e-02   2.229e-02    1.586e-02    1.266e-03    -1.168e-03  /