units(length='cm', time='s', quantity='mol', act_energy='kcal/mol')

ideal_gas(name='gas',
          elements="H D T C Ci O Oi N Ne Ar He Si S F Cl Br I X",
          species="""aOOHbalkene      OH               ibutanal
                     aR               performic_acid   disub_c4ether
                     aQOOHb           H                aadduct
                     trisub_epoxy     ibutenol         aQOOH[O]
                     ipropyl          aRO2             O2
                     formic_acid      propene          aQOOHg
                     ibut_peroxyacid  HO2              CH3""",
          reactions='all',
          initial_state=state(temperature=300.0, pressure=OneAtm))

#-------------------------------------------------------------------------------
# Element data
#-------------------------------------------------------------------------------

element(symbol='Ci', atomic_mass=13.003)
element(symbol='D', atomic_mass=2.014)
element(symbol='Oi', atomic_mass=18.0)
element(symbol='T', atomic_mass=3.016)
element(symbol='X', atomic_mass=195.083)
#-------------------------------------------------------------------------------
# Species data
#-------------------------------------------------------------------------------

species(name='aOOHbalkene',
        atoms='C:3 H:6 O:3',
        thermo=(NASA([10.00, 497.41],
                     [ 3.76691735E+00,  1.51417956E-02,  1.85499431E-04,
                      -4.61303214E-07,  3.27678941E-10, -3.19734808E+04,
                       1.09903968E+01]),
                NASA([497.41, 3000.00],
                     [ 6.20882781E+00,  4.08866173E-02, -2.89934946E-05,
                       9.60428979E-09, -1.19355432E-12, -3.27778101E+04,
                      -4.72842811E+00])))

species(name='OH',
        atoms='H:1 O:1',
        thermo=(NASA([10.00, 984.14],
                     [ 3.49686242E+00,  1.83973160E-04, -9.97634499E-07,
                       1.56942783E-09, -6.10128175E-13,  3.41673934E+03,
                       1.48093120E+00]),
                NASA([984.14, 3000.00],
                     [ 3.45221464E+00, -2.95124034E-04,  7.39418622E-07,
                      -2.89309866E-10,  3.53041498E-14,  3.45751599E+03,
                       1.85813897E+00])))

species(name='ibutanal',
        atoms='C:4 H:8 O:1',
        thermo=(NASA([10.00, 683.88],
                     [ 3.57157346E+00,  3.36936906E-02, -1.78475021E-05,
                       1.31946716E-08, -7.58008388E-12, -2.62734558E+04,
                       1.05595084E+01]),
                NASA([683.88, 3000.00],
                     [ 1.29043622E+00,  4.14804229E-02, -2.27411206E-05,
                       6.08619500E-09, -6.38995128E-13, -2.58315367E+04,
                       2.16477430E+01])))

species(name='aR',
        atoms='C:4 H:9 O:1',
        thermo=(NASA([10.00, 455.22],
                     [ 3.59625500E+00,  3.38947981E-02,  7.37257079E-06,
                      -3.99275335E-08,  2.49019944E-11, -1.33762201E+04,
                       1.18269265E+01]),
                NASA([455.22, 3000.00],
                     [ 2.49586309E+00,  4.35639890E-02, -2.44887770E-05,
                       6.73363769E-09, -7.23862433E-13, -1.32760369E+04,
                       1.62696907E+01])))

species(name='performic_acid',
        atoms='C:1 H:2 O:3',
        thermo=(NASA([10.00, 590.95],
                     [ 3.92633851E+00,  4.24517168E-03,  6.71106764E-05,
                      -1.36545385E-07,  8.03337864E-11, -3.63028176E+04,
                       8.06485813E+00]),
                NASA([590.95, 3000.00],
                     [ 4.39992934E+00,  1.85411415E-02, -1.36005501E-05,
                       4.62292431E-09, -5.88463603E-13, -3.66643888E+04,
                       3.44353230E+00])))

species(name='disub_c4ether',
        atoms='C:4 H:8 O:2',
        thermo=(NASA([10.00, 413.50],
                     [ 3.78241323E+00,  1.89501763E-02,  8.65302396E-05,
                      -1.80580575E-07,  1.13656264E-10, -3.87096272E+04,
                       1.09982450E+01]),
                NASA([413.50, 3000.00],
                     [ 4.29420885E-01,  5.13851903E-02, -3.11292293E-05,
                       9.11498284E-09, -1.03192718E-12, -3.84323328E+04,
                       2.42134976E+01])))

species(name='aQOOHb',
        atoms='C:4 H:9 O:3',
        thermo=(NASA([10.00, 412.78],
                     [ 3.15498836E+00,  8.55068303E-02, -2.35307993E-04,
                       4.71983261E-07, -3.62709267E-10, -2.78210547E+04,
                       1.52522123E+01]),
                NASA([412.78, 3000.00],
                     [ 4.18099845E+00,  5.26168288E-02, -3.23998410E-05,
                       9.59389339E-09, -1.09464519E-12, -2.77102598E+04,
                       1.35782328E+01])))

species(name='H',
        atoms='H:1',
        thermo=(NASA([10.00, 794.01],
                     [ 2.50000000E+00,  1.99051163E-15, -1.19089508E-17,
                       2.10805655E-20, -1.11017699E-23,  2.54725594E+04,
                      -4.61279342E-01]),
                NASA([794.01, 3000.00],
                     [ 2.50000000E+00,  1.52667235E-14, -1.58445285E-17,
                       6.63088600E-21, -9.62111674E-25,  2.54725594E+04,
                      -4.61279342E-01])))

species(name='aadduct',
        atoms='C:4 H:9 O:3',
        thermo=(NASA([10.00, 449.84],
                     [ 3.06901904E+00,  9.20724491E-02, -2.68085092E-04,
                       5.15249897E-07, -3.68046586E-10, -3.00178283E+04,
                       1.46591735E+01]),
                NASA([449.84, 3000.00],
                     [ 4.11210745E+00,  5.16955724E-02, -2.97401041E-05,
                       8.32758939E-09, -9.08861448E-13, -2.97969874E+04,
                       1.39578825E+01])))

species(name='trisub_epoxy',
        atoms='C:4 H:8 O:2',
        thermo=(NASA([10.00, 209.19],
                     [ 3.75295042E+00,  2.37546930E-02,  1.26610110E-04,
                      -4.78364365E-07,  5.79468168E-10, -4.12040507E+04,
                       1.12739684E+01]),
                NASA([209.19, 3000.00],
                     [ 2.64185254E+00,  4.50006531E-02, -2.57361066E-05,
                       7.15266054E-09, -7.72980731E-13, -4.11575651E+04,
                       1.48960343E+01])))

species(name='ibutenol',
        atoms='C:4 H:8 O:1',
        thermo=(NASA([10.00, 135.97],
                     [ 3.95714996E+00,  5.72646980E-03,  4.63611760E-04,
                      -3.04137514E-06,  6.85019471E-09, -2.33922140E+04,
                       8.21931848E+00]),
                NASA([135.97, 3000.00],
                     [ 3.32467612E+00,  3.69033556E-02, -1.89960416E-05,
                       4.73417677E-09, -4.59705291E-13, -2.33866353E+04,
                       9.58133237E+00])))

species(name='aQOOH[O]',
        atoms='C:4 H:9 O:3',
        thermo=(NASA([10.00, 488.36],
                     [ 3.54559533E+00,  3.89536133E-02,  8.47689703E-05,
                      -2.45147486E-07,  1.76157259E-10, -2.47640778E+04,
                       1.34685910E+01]),
                NASA([488.36, 3000.00],
                     [ 3.94214913E+00,  5.71928314E-02, -3.72516212E-05,
                       1.15209013E-08, -1.35808341E-12, -2.50590387E+04,
                       9.21628964E+00])))

species(name='ipropyl',
        atoms='C:3 H:7',
        thermo=(NASA([10.00, 421.76],
                     [ 3.73943775E+00,  3.10070157E-02, -1.51196908E-04,
                       4.35367329E-07, -3.85565052E-10,  9.49213457E+03,
                       7.79448918E+00]),
                NASA([421.76, 3000.00],
                     [-4.74526725E-01,  3.20862468E-02, -1.67340747E-05,
                       4.21365136E-09, -4.13155573E-13,  1.01934458E+04,
                       2.85865912E+01])))

species(name='aRO2',
        atoms='C:4 H:9 O:3',
        thermo=(NASA([10.00, 670.36],
                     [ 3.45405325E+00,  4.74751311E-02,  9.77507759E-06,
                      -6.31019603E-08,  3.75500067E-11, -3.49876504E+04,
                       1.39284976E+01]),
                NASA([670.36, 3000.00],
                     [ 5.04137652E+00,  5.19952978E-02, -3.16472789E-05,
                       9.22798587E-09, -1.03598915E-12, -3.55148430E+04,
                       4.56056770E+00])))

species(name='O2',
        atoms='O:2',
        thermo=(NASA([10.00, 605.96],
                     [ 3.50743498E+00, -4.43860349E-04,  1.45938058E-06,
                       1.61509333E-09, -2.32050052E-12, -9.24756224E+02,
                       4.72183634E+00]),
                NASA([605.96, 3000.00],
                     [ 2.87462882E+00,  2.17840991E-03, -1.18262921E-06,
                       2.86910493E-10, -2.53297146E-14, -8.19517838E+02,
                       7.69331810E+00])))

species(name='formic_acid',
        atoms='C:1 H:2 O:2',
        thermo=(NASA([10.00, 741.38],
                     [ 4.06855785E+00, -4.74562133E-03,  4.71797900E-05,
                      -6.07490052E-08,  2.51286794E-11, -4.66880837E+04,
                       6.53681035E+00]),
                NASA([741.38, 3000.00],
                     [ 1.13645847E+00,  1.74953124E-02, -1.08112403E-05,
                       3.08075326E-09, -3.34892658E-13, -4.64297918E+04,
                       1.86149484E+01])))

species(name='propene',
        atoms='C:3 H:6',
        thermo=(NASA([10.00, 519.53],
                     [ 3.98723879E+00,  4.72040503E-04,  6.51776229E-05,
                      -9.89891002E-08,  4.91141123E-11,  2.62115429E+03,
                       6.98071210E+00]),
                NASA([519.53, 3000.00],
                     [ 3.79893331E-01,  2.82457690E-02, -1.50108430E-05,
                       3.90894069E-09, -4.00521928E-13,  2.99598164E+03,
                       2.20218922E+01])))

species(name='aQOOHg',
        atoms='C:4 H:9 O:3',
        thermo=(NASA([10.00, 455.48],
                     [ 3.62522127E+00,  2.83222320E-02,  2.08527447E-04,
                      -5.67427418E-07,  4.35169138E-10, -2.59720063E+04,
                       1.26617758E+01]),
                NASA([455.48, 3000.00],
                     [ 5.13914202E+00,  5.96270859E-02, -4.14435328E-05,
                       1.34202375E-08, -1.63474553E-12, -2.65725627E+04,
                       1.46991116E+00])))

species(name='ibut_peroxyacid',
        atoms='C:4 H:8 O:3',
        thermo=(NASA([10.00, 1386.21],
                     [ 3.50995385E+00,  4.78670384E-02, -2.40781384E-05,
                       3.71046938E-09,  3.85442115E-13, -4.72098464E+04,
                       1.22017268E+01]),
                NASA([1386.21, 3000.00],
                     [ 1.24543146E+01,  3.02396862E-02, -1.38577031E-05,
                       3.05328904E-09, -2.63982457E-13, -5.04757297E+04,
                      -3.67061828E+01])))

species(name='HO2',
        atoms='H:1 O:2',
        thermo=(NASA([10.00, 891.11],
                     [ 4.02887004E+00, -1.75769289E-03,  1.08726004E-05,
                      -1.13812972E-08,  3.90113097E-12,  4.95165001E+02,
                       4.69302008E+00]),
                NASA([891.11, 3000.00],
                     [ 3.06571044E+00,  4.28505005E-03, -2.19325920E-06,
                       5.58882699E-10, -5.61246669E-14,  5.98557610E+02,
                       8.84564156E+00])))

species(name='CH3',
        atoms='C:1 H:3',
        thermo=(NASA([10.00, 616.77],
                     [ 3.98929952E+00,  5.45150461E-04,  9.01320092E-06,
                      -1.08320497E-08,  4.38985879E-12,  1.65859883E+04,
                       2.22446886E-01]),
                NASA([616.77, 3000.00],
                     [ 3.35928237E+00,  4.63117126E-03, -9.24365433E-07,
                      -9.02514624E-11,  3.56905106E-14,  1.66637014E+04,
                       2.95743732E+00])))

#-------------------------------------------------------------------------------
# Reaction data
#-------------------------------------------------------------------------------

# Reaction 1
chebyshev_reaction('aQOOH[O] (+ M) <=> aQOOHb (+ M)',
                   Tmin=180.0, Tmax=1500.0,
                   Pmin=(0.01, 'atm'), Pmax=(98.692, 'atm'),
                   coeffs=[[ 3.45700e+00,  8.82700e-01, -4.36600e-01, -4.37800e-03,  9.66900e-04,  2.85600e-03,  1.50400e-04, -1.80900e-04],
                           [ 2.32600e+00,  2.00900e+00, -8.35400e-02, -5.47500e-02,  1.45300e-02, -3.59500e-04, -4.84200e-04,  7.56400e-05],
                           [-8.20200e-02,  4.07000e-01,  5.61300e-02, -4.86800e-02, -1.67400e-03,  7.40700e-03,  5.23000e-04, -5.65800e-04],
                           [-8.12300e-02,  5.44300e-02,  8.31900e-02, -2.10200e-02, -1.85100e-02,  2.39400e-03,  2.72000e-03,  4.65000e-05],
                           [-9.02000e-03,  3.30900e-02,  4.94700e-02,  6.71100e-03, -1.14900e-02, -3.67800e-03,  1.26800e-03,  6.82300e-04],
                           [ 9.07200e-03,  3.77500e-02,  1.55300e-02,  9.14600e-03, -1.18000e-03, -2.97500e-03, -4.48700e-04,  4.19600e-04],
                           [-5.00500e-03,  2.35400e-02,  3.85400e-03,  3.60600e-03,  1.25100e-03, -6.43400e-04, -5.91300e-04, -3.81600e-05],
                           [-1.05100e-02,  5.44900e-03,  3.12500e-03,  1.00900e-03,  5.64200e-04,  1.48900e-05, -1.62000e-04, -1.21000e-04],
                           [-1.18100e-02, -7.20000e-03,  9.43300e-04,  1.72100e-03,  2.04900e-04, -2.87000e-05, -6.81200e-05, -3.19700e-05],
                           [-8.97100e-03, -7.43800e-03,  1.06900e-03,  9.71700e-04,  4.43500e-04, -2.36100e-04, -2.70600e-05,  1.71400e-05]])

# Reaction 2
chebyshev_reaction('aQOOHg (+ M) <=> aQOOHb (+ M)',
                   Tmin=180.0, Tmax=1500.0,
                   Pmin=(0.01, 'atm'), Pmax=(98.692, 'atm'),
                   coeffs=[[ 1.42600e+00, -3.77400e-01, -4.10300e-01,  1.70000e-02,  6.63000e-03,  6.32000e-04, -2.30100e-04, -3.18900e-05],
                           [ 3.57500e+00,  2.20700e+00, -3.89900e-01, -6.07100e-02,  2.03500e-02,  2.05300e-03, -5.38100e-04, -2.84400e-05],
                           [ 1.96400e-01,  7.91300e-01,  5.40400e-02, -7.98100e-02, -4.92000e-03,  6.21600e-03,  4.21800e-04, -2.66600e-04],
                           [-2.22200e-01,  1.62300e-01,  1.29300e-01, -2.57900e-02, -1.70400e-02,  1.34700e-03,  1.76600e-03,  1.10800e-04],
                           [-8.88000e-02,  6.25400e-02,  6.35900e-02,  2.84500e-03, -8.70300e-03, -2.42300e-03,  5.68800e-04,  5.21000e-04],
                           [-2.65800e-02,  5.84700e-02,  2.35200e-02,  3.94400e-03, -2.15800e-03, -1.09000e-03, -5.45300e-04,  1.07600e-04],
                           [-2.50800e-02,  3.21900e-02,  1.22000e-02,  2.47300e-03, -1.20900e-03,  1.87800e-04, -2.36500e-04, -2.85700e-04],
                           [-1.88900e-02,  5.59100e-03,  6.24100e-03,  3.05600e-03, -7.21200e-04, -7.51000e-05,  1.69500e-04, -1.86000e-04],
                           [-1.58000e-02, -6.80100e-03,  1.40400e-03,  2.82800e-03,  2.66600e-04, -3.93900e-04,  1.12500e-04,  5.34200e-06],
                           [-7.59800e-03, -9.07500e-03, -9.76300e-04,  1.78300e-03,  6.76200e-04, -2.66200e-04, -2.50500e-05,  4.94900e-05]])

# Reaction 3
chebyshev_reaction('aRO2 (+ M) <=> aQOOHb (+ M)',
                   Tmin=180.0, Tmax=1500.0,
                   Pmin=(0.01, 'atm'), Pmax=(98.692, 'atm'),
                   coeffs=[[-3.35700e+00,  8.26600e-01, -1.95500e-01, -6.25100e-03,  6.90100e-03,  7.61400e-04, -2.09200e-04, -4.29500e-05],
                           [ 9.28700e+00,  1.34500e+00, -2.78200e-01, -2.72000e-02,  1.08500e-02,  2.27000e-03, -1.79300e-04, -1.61300e-04],
                           [ 1.43700e-01,  7.17100e-01, -7.13500e-02, -4.07500e-02,  7.42200e-04,  3.78900e-03,  3.78400e-04, -2.57600e-04],
                           [-1.75700e-01,  2.33900e-01,  4.81500e-02, -2.84900e-02, -8.94700e-03,  3.20100e-03,  1.03400e-03, -1.70600e-04],
                           [-1.34600e-01,  4.05200e-02,  5.74300e-02, -8.23400e-03, -9.49200e-03,  4.00900e-04,  1.11400e-03,  1.28700e-04],
                           [-6.82100e-02,  1.13100e-02,  2.94200e-02,  8.53600e-04, -3.93600e-03, -1.52600e-03,  4.32900e-04,  3.38300e-04],
                           [-3.39300e-02,  1.32600e-02,  1.11000e-02,  1.18500e-03,  4.01300e-05, -1.32700e-03, -2.24200e-04,  2.32700e-04],
                           [-1.68900e-02,  6.38000e-03,  4.74600e-03,  9.48200e-04,  5.14500e-04, -4.36300e-04, -3.07500e-04, -3.08700e-06],
                           [-6.20200e-03, -2.29500e-03,  2.09100e-03,  1.74600e-03, -9.38100e-05, -4.01600e-05, -9.61800e-05, -1.02500e-04],
                           [ 2.58100e-04, -6.08400e-03,  4.34700e-04,  1.97400e-03, -2.28900e-04, -2.65700e-05,  1.37700e-05, -6.11300e-05]])

# Reaction 4
chebyshev_reaction('aadduct (+ M) <=> aQOOHb (+ M)',
                   Tmin=180.0, Tmax=1500.0,
                   Pmin=(0.01, 'atm'), Pmax=(98.692, 'atm'),
                   coeffs=[[-3.26200e+00, -3.72100e-01, -5.98600e-02, -2.86100e-02,  4.91600e-03,  4.29300e-03, -1.50000e-03,  1.32100e-04],
                           [ 2.21800e+00,  2.28400e+00, -1.60900e-01, -7.72000e-02,  1.70200e-02,  4.13000e-03, -1.45700e-03,  2.63600e-05],
                           [-2.79300e-01,  1.19600e+00, -1.88000e-01, -4.07500e-02,  8.83200e-03, -1.29900e-03,  1.18900e-03,  3.27400e-04],
                           [ 1.25600e-01,  4.14300e-01, -1.18800e-01,  1.69000e-02, -7.61900e-03, -4.40700e-03,  4.06400e-03, -1.33600e-04],
                           [ 1.38200e-01, -3.02500e-02, -4.72000e-03,  3.99400e-02, -1.89000e-02, -2.82500e-03,  3.44000e-03, -3.68300e-04],
                           [ 5.25700e-02, -1.49100e-01,  7.79100e-02,  2.49800e-02, -2.40700e-02,  4.31600e-03,  1.55200e-03, -1.75700e-03],
                           [-7.05200e-04, -8.08300e-02,  8.77600e-02, -7.12900e-03, -1.29300e-02,  6.54000e-03, -1.78800e-03, -4.59300e-04],
                           [-6.92900e-03, -6.56200e-04,  5.13500e-02, -2.97700e-02,  4.74500e-03,  4.49500e-03, -4.39100e-03,  1.33600e-03],
                           [-5.61600e-03,  2.51200e-02,  6.75400e-03, -2.61200e-02,  1.42300e-02,  6.13500e-04, -3.57800e-03,  1.41600e-03],
                           [-8.76700e-03,  1.04900e-02, -1.57400e-02, -8.29600e-03,  1.49100e-02, -4.61600e-03, -1.26600e-03,  1.24800e-03]])

# Reaction 5
chebyshev_reaction('O2 + aR (+ M) <=> aQOOHb (+ M)',
                   Tmin=180.0, Tmax=1500.0,
                   Pmin=(0.01, 'atm'), Pmax=(98.692, 'atm'),
                   coeffs=[[ 9.43500e+00,  3.36100e-01, -5.81400e-01, -2.73600e-02,  3.92800e-02,  7.94900e-04, -4.85700e-03,  5.32700e-04],
                           [-1.08000e-01,  9.06700e-01,  1.49600e-01, -1.04700e-01, -3.55200e-02,  1.56500e-02,  6.39700e-03, -2.74600e-03],
                           [ 4.32300e-02,  2.08100e-01,  1.05000e-01,  6.45500e-03, -2.24400e-02, -7.26600e-03,  3.62100e-03,  2.01800e-03],
                           [-2.35200e-02,  6.15400e-02,  4.73300e-02,  1.71600e-02, -4.41500e-03, -6.49500e-03, -9.28900e-04,  1.34900e-03],
                           [-1.94100e-03,  5.69800e-02,  2.58700e-02,  6.23600e-03, -7.35400e-04, -1.90900e-03, -9.86600e-04,  7.53200e-05],
                           [ 5.23800e-03,  4.33300e-02,  1.72100e-02,  2.09700e-03, -9.77600e-04, -4.52500e-04, -2.12500e-04, -1.32100e-04],
                           [-2.92400e-03,  1.82600e-02,  8.78900e-03,  2.09200e-03, -1.57300e-04, -2.71800e-04, -1.16000e-04, -6.22900e-05],
                           [-6.37900e-03,  3.49100e-04,  1.99400e-03,  1.89800e-03,  7.49100e-04, -4.13000e-05, -1.83500e-04, -7.63800e-05],
                           [-8.16700e-03, -7.04400e-03, -1.32600e-03,  1.26100e-03,  9.20700e-04,  1.18700e-04, -1.31100e-04, -7.20300e-05],
                           [-7.11700e-03, -8.05300e-03, -2.12800e-03,  7.48900e-04,  6.99600e-04,  1.03500e-04, -6.91600e-05, -2.83500e-05]])
#  aQOOHb(+M) <=> aQOOH[O](+M)                         1.000e+00 0.000     0.000
#      TCHEB/ 180.000   1500.000 /
#      PCHEB/ 0.010     98.692   /
#      CHEB/ 10 8/
#      CHEB/ -2.167e+00   8.827e-01    -4.366e-01   -4.378e-03   9.669e-04   /
#      CHEB/ 2.856e-03    1.504e-04    -1.809e-04   5.393e+00    2.009e+00   /
#      CHEB/ -8.354e-02   -5.475e-02   1.453e-02    -3.595e-04   -4.842e-04  /
#      CHEB/ 7.564e-05    -4.093e-03   4.070e-01    5.613e-02    -4.868e-02  /
#      CHEB/ -1.674e-03   7.407e-03    5.230e-04    -5.658e-04   -3.523e-02  /
#      CHEB/ 5.443e-02    8.319e-02    -2.102e-02   -1.851e-02   2.394e-03   /
#      CHEB/ 2.720e-03    4.650e-05    6.355e-03    3.309e-02    4.947e-02   /
#      CHEB/ 6.711e-03    -1.149e-02   -3.678e-03   1.268e-03    6.823e-04   /
#      CHEB/ 1.384e-02    3.775e-02    1.553e-02    9.146e-03    -1.180e-03  /
#      CHEB/ -2.975e-03   -4.487e-04   4.196e-04    -3.195e-03   2.354e-02   /
#      CHEB/ 3.854e-03    3.606e-03    1.251e-03    -6.434e-04   -5.913e-04  /
#      CHEB/ -3.816e-05   -9.796e-03   5.449e-03    3.125e-03    1.009e-03   /
#      CHEB/ 5.642e-04    1.489e-05    -1.620e-04   -1.210e-04   -1.162e-02  /
#      CHEB/ -7.200e-03   9.433e-04    1.721e-03    2.049e-04    -2.870e-05  /
#      CHEB/ -6.812e-05   -3.197e-05   -8.964e-03   -7.438e-03   1.069e-03   /
#      CHEB/ 9.717e-04    4.435e-04    -2.361e-04   -2.706e-05   1.714e-05   /

# Reaction 6
chebyshev_reaction('aQOOHg (+ M) <=> aQOOH[O] (+ M)',
                   Tmin=180.0, Tmax=1500.0,
                   Pmin=(0.01, 'atm'), Pmax=(98.692, 'atm'),
                   coeffs=[[ 2.46500e+00,  1.14600e+00, -1.72700e-01,  5.06200e-03,  1.05300e-02, -4.93800e-04, -8.58100e-04,  7.98000e-06],
                           [ 1.86100e+00,  1.42200e+00, -2.21700e-01,  9.66900e-03,  1.76100e-02, -1.04900e-03, -7.33700e-04, -3.08800e-04],
                           [ 1.80000e-01,  4.33800e-01, -8.27600e-02, -1.68000e-02,  6.17300e-03,  5.46100e-03, -3.86100e-04, -4.68400e-04],
                           [ 5.14300e-02,  1.07500e-01,  3.18500e-02, -5.07500e-02, -7.98900e-03,  7.38000e-03,  9.54700e-04, -3.44800e-05],
                           [-7.71000e-02,  8.41900e-02,  7.09500e-02, -3.81800e-02, -1.26800e-02,  1.08000e-03,  1.74400e-03,  5.30800e-04],
                           [-9.00700e-02,  6.70100e-02,  3.75000e-02, -3.67300e-03, -7.11600e-03, -3.62500e-03,  9.22800e-04,  4.32900e-04],
                           [-3.76100e-02,  2.63800e-02,  6.24300e-04,  1.25600e-02, -1.87600e-03, -2.17700e-03, -2.35400e-04, -1.30900e-04],
                           [-2.91600e-03, -4.05700e-04, -4.86000e-03,  8.22200e-03, -7.39600e-04,  7.17700e-04, -4.50600e-04, -4.25900e-04],
                           [-2.49900e-03, -4.33200e-03,  4.62500e-03,  3.44300e-04, -4.59000e-04,  8.25600e-04, -1.62500e-05, -1.37100e-04],
                           [-7.30700e-03, -4.82100e-03,  8.66300e-03, -5.85300e-04,  1.98600e-04, -6.71100e-04,  1.32800e-04,  2.74000e-04]])

# Reaction 7
chebyshev_reaction('aRO2 (+ M) <=> aQOOH[O] (+ M)',
                   Tmin=180.0, Tmax=1500.0,
                   Pmin=(0.01, 'atm'), Pmax=(98.692, 'atm'),
                   coeffs=[[-4.98600e+00,  1.89300e+00, -2.93900e-01,  9.11200e-03,  3.90300e-05,  1.67700e-03, -6.01600e-05, -2.63800e-04],
                           [ 1.10500e+01,  1.21100e+00,  1.91500e-02, -2.08000e-02,  4.36800e-03, -2.42200e-03, -2.86800e-05,  2.29400e-04],
                           [-6.13200e-01,  2.39100e-01,  1.70800e-02, -9.28200e-03,  8.98900e-03,  1.57900e-03, -1.12900e-03, -1.41800e-04],
                           [-1.87100e-01,  5.77300e-02, -4.67700e-04, -1.75300e-02,  6.83900e-04,  3.82000e-03,  2.46300e-04, -3.40900e-04],
                           [-7.31600e-02,  5.53600e-02,  3.61500e-03, -1.19100e-02, -4.72300e-03,  1.61800e-03,  8.41700e-04, -1.12000e-04],
                           [-4.67500e-02,  4.95900e-02,  8.61900e-03, -5.04500e-03, -3.65200e-03, -1.38100e-04,  5.19900e-04,  5.54600e-05],
                           [-3.22300e-02,  2.88800e-02,  9.67600e-03, -1.31600e-03, -1.83700e-03, -4.38300e-04,  1.93100e-04,  6.48300e-05],
                           [-1.70000e-02,  6.84400e-03,  9.19000e-03,  4.83600e-05, -9.14800e-04, -2.57500e-04,  2.98700e-05,  5.61100e-05],
                           [-4.08100e-03, -5.58700e-03,  4.39500e-03,  2.29300e-03, -8.71700e-04, -1.12700e-04, -1.90800e-05,  1.79400e-05],
                           [ 3.37400e-04, -8.23500e-03,  3.71700e-03,  9.20400e-04, -2.69000e-05, -3.41600e-04,  2.27200e-05,  6.67700e-05]])

# Reaction 8
chebyshev_reaction('aadduct (+ M) <=> aQOOH[O] (+ M)',
                   Tmin=180.0, Tmax=1500.0,
                   Pmin=(0.01, 'atm'), Pmax=(98.692, 'atm'),
                   coeffs=[[-6.75900e+00,  1.88000e+00, -2.85600e-01,  8.66800e-03, -2.01500e-04,  1.84000e-03, -1.08000e-04, -2.82100e-04],
                           [ 5.77900e+00,  1.28900e+00,  2.09100e-02, -2.68400e-02,  3.93300e-03, -1.64700e-03,  2.47600e-05,  1.70500e-04],
                           [-6.10900e-01,  2.85600e-01,  1.95900e-02, -1.10300e-02,  7.80500e-03,  1.39500e-03, -8.65200e-04, -1.13000e-04],
                           [-9.97200e-02,  6.10400e-02,  2.77900e-03, -1.66900e-02, -2.85200e-04,  3.38600e-03,  4.10500e-04, -2.78900e-04],
                           [ 6.64700e-02,  4.30400e-02,  9.04300e-03, -1.05800e-02, -5.85700e-03,  1.37000e-03,  9.17000e-04, -6.62700e-05],
                           [ 6.19500e-02,  3.90200e-02,  1.41800e-02, -3.57200e-03, -4.53100e-03, -3.63400e-04,  5.58600e-04,  8.15600e-05],
                           [ 1.75800e-02,  2.43300e-02,  1.27900e-02,  3.46400e-05, -2.06400e-03, -7.09300e-04,  2.03900e-04,  8.51900e-05],
                           [-8.80300e-03,  5.54300e-03,  9.91600e-03,  9.56700e-04, -6.78000e-04, -4.41000e-04, -2.42400e-05,  8.14800e-05],
                           [-1.29900e-02, -5.30600e-03,  3.37700e-03,  3.00000e-03, -5.96500e-04, -1.72600e-04, -8.85900e-05,  2.59300e-05],
                           [-1.27800e-02, -8.41400e-03,  2.66200e-03,  1.03800e-03,  3.46500e-04, -3.64000e-04, -3.82800e-05,  7.62100e-05]])

# Reaction 9
chebyshev_reaction('O2 + aR (+ M) <=> aQOOH[O] (+ M)',
                   Tmin=180.0, Tmax=1500.0,
                   Pmin=(0.01, 'atm'), Pmax=(98.692, 'atm'),
                   coeffs=[[ 9.14700e+00,  1.18400e+00, -3.12400e-01, -3.22200e-02,  1.62100e-02,  9.97300e-04, -3.04400e-03, -2.61000e-04],
                           [-3.16700e-01,  4.41700e-01,  9.80400e-02, -3.45800e-02, -1.43000e-02,  8.22900e-03,  4.17000e-03, -1.19200e-03],
                           [ 2.47400e-02,  6.23300e-02,  4.45200e-02,  9.55400e-03, -8.39600e-03, -4.86800e-03,  1.07100e-03,  1.34700e-03],
                           [-4.11900e-03,  2.79200e-02,  2.02900e-02,  8.11800e-03, -1.08300e-03, -2.98400e-03, -9.09700e-04,  4.94900e-04],
                           [ 1.30100e-02,  5.42000e-02,  1.79300e-02, -1.10400e-04, -1.75700e-03, -3.03900e-04, -9.84600e-05, -1.13300e-04],
                           [ 1.36400e-02,  4.55500e-02,  1.59900e-02, -6.97000e-04, -2.55300e-03, -2.84300e-04,  4.07100e-04,  4.79400e-05],
                           [ 1.17100e-04,  1.96100e-02,  9.18800e-03,  1.35700e-03, -1.11400e-03, -6.05400e-04,  7.61800e-05,  1.40900e-04],
                           [-4.39300e-03,  1.22100e-03,  2.75900e-03,  2.12600e-03,  4.82400e-04, -3.38300e-04, -2.33800e-04,  1.79800e-05],
                           [-8.54000e-03, -7.43000e-03, -1.34200e-03,  1.37900e-03,  8.98900e-04, -2.88500e-05, -2.32700e-04, -6.55700e-05],
                           [-4.16000e-03, -7.54000e-03, -1.71000e-03,  1.09800e-03,  8.94000e-04,  1.11600e-04, -1.38800e-04, -6.43500e-05]])
#  aQOOHb(+M) <=> aQOOHg(+M)                           1.000e+00 0.000     0.000
#      TCHEB/ 180.000   1500.000 /
#      PCHEB/ 0.010     98.692   /
#      CHEB/ 10 8/
#      CHEB/ -2.761e+00   -3.774e-01   -4.103e-01   1.700e-02    6.630e-03   /
#      CHEB/ 6.320e-04    -2.301e-04   -3.189e-05   5.664e+00    2.207e+00   /
#      CHEB/ -3.899e-01   -6.071e-02   2.035e-02    2.053e-03    -5.381e-04  /
#      CHEB/ -2.844e-05   4.196e-01    7.913e-01    5.404e-02    -7.981e-02  /
#      CHEB/ -4.920e-03   6.216e-03    4.218e-04    -2.666e-04   -1.281e-01  /
#      CHEB/ 1.623e-01    1.293e-01    -2.579e-02   -1.704e-02   1.347e-03   /
#      CHEB/ 1.766e-03    1.108e-04    -6.059e-02   6.254e-02    6.359e-02   /
#      CHEB/ 2.845e-03    -8.703e-03   -2.423e-03   5.688e-04    5.210e-04   /
#      CHEB/ -1.871e-02   5.847e-02    2.352e-02    3.944e-03    -2.158e-03  /
#      CHEB/ -1.090e-03   -5.453e-04   1.076e-04    -2.257e-02   3.219e-02   /
#      CHEB/ 1.220e-02    2.473e-03    -1.209e-03   1.878e-04    -2.365e-04  /
#      CHEB/ -2.857e-04   -1.816e-02   5.591e-03    6.241e-03    3.056e-03   /
#      CHEB/ -7.212e-04   -7.510e-05   1.695e-04    -1.860e-04   -1.578e-02  /
#      CHEB/ -6.801e-03   1.404e-03    2.828e-03    2.666e-04    -3.939e-04  /
#      CHEB/ 1.125e-04    5.342e-06    -7.740e-03   -9.075e-03   -9.763e-04  /
#      CHEB/ 1.783e-03    6.762e-04    -2.662e-04   -2.505e-05   4.949e-05   /
#  aQOOH[O](+M) <=> aQOOHg(+M)                         1.000e+00 0.000     0.000
#      TCHEB/ 180.000   1500.000 /
#      PCHEB/ 0.010     98.692   /
#      CHEB/ 10 8/
#      CHEB/ 3.901e+00    1.146e+00    -1.727e-01   5.062e-03    1.053e-02   /
#      CHEB/ -4.938e-04   -8.581e-04   7.980e-06    8.826e-01    1.422e+00   /
#      CHEB/ -2.217e-01   9.669e-03    1.761e-02    -1.049e-03   -7.337e-04  /
#      CHEB/ -3.088e-04   3.253e-01    4.338e-01    -8.276e-02   -1.680e-02  /
#      CHEB/ 6.173e-03    5.461e-03    -3.861e-04   -4.684e-04   9.957e-02   /
#      CHEB/ 1.075e-01    3.185e-02    -5.075e-02   -7.989e-03   7.380e-03   /
#      CHEB/ 9.547e-04    -3.448e-05   -6.427e-02   8.419e-02    7.095e-02   /
#      CHEB/ -3.818e-02   -1.268e-02   1.080e-03    1.744e-03    5.308e-04   /