units(length='cm', time='s', quantity='mol', act_energy='kcal/mol')

ideal_gas(name='gas',
          elements="H D T C Ci O Oi N Ne Ar He Si S F Cl Br I X",
          species="""aOOHbalkene      OH               ibutanal
                     aR               performic_acid   disub_c4ether
                     aQOOHb           H                aadduct
                     trisub_epoxy     ibutenol         aQOOH[O]
                     ipropyl          aRO2             O2
                     formic_acid      propene          aQOOHg
                     ibut_peroxyacid  HO2              CH3""",
          reactions='all',
          initial_state=state(temperature=300.0, pressure=OneAtm))

#-------------------------------------------------------------------------------
# Element data
#-------------------------------------------------------------------------------

element(symbol='Ci', atomic_mass=13.003)
element(symbol='D', atomic_mass=2.014)
element(symbol='Oi', atomic_mass=18.0)
element(symbol='T', atomic_mass=3.016)
element(symbol='X', atomic_mass=195.083)
#-------------------------------------------------------------------------------
# Species data
#-------------------------------------------------------------------------------

species(name='aOOHbalkene',
        atoms='C:3 H:6 O:3',
        thermo=(NASA([10.00, 497.41],
                     [ 3.76691735E+00,  1.51417956E-02,  1.85499431E-04,
                      -4.61303214E-07,  3.27678941E-10, -2.99415382E+04,
                       1.09903968E+01]),
                NASA([497.41, 3000.00],
                     [ 6.20882781E+00,  4.08866173E-02, -2.89934946E-05,
                       9.60428979E-09, -1.19355432E-12, -3.07458676E+04,
                      -4.72842811E+00])))

species(name='OH',
        atoms='H:1 O:1',
        thermo=(NASA([10.00, 984.14],
                     [ 3.49686242E+00,  1.83973160E-04, -9.97634499E-07,
                       1.56942783E-09, -6.10128175E-13,  3.41673934E+03,
                       1.48093120E+00]),
                NASA([984.14, 3000.00],
                     [ 3.45221464E+00, -2.95124034E-04,  7.39418622E-07,
                      -2.89309866E-10,  3.53041498E-14,  3.45751599E+03,
                       1.85813897E+00])))

species(name='ibutanal',
        atoms='C:4 H:8 O:1',
        thermo=(NASA([10.00, 683.88],
                     [ 3.57157346E+00,  3.36936906E-02, -1.78475021E-05,
                       1.31946716E-08, -7.58008388E-12, -2.68329708E+04,
                       1.05595084E+01]),
                NASA([683.88, 3000.00],
                     [ 1.29043622E+00,  4.14804229E-02, -2.27411206E-05,
                       6.08619500E-09, -6.38995128E-13, -2.63910517E+04,
                       2.16477430E+01])))

species(name='aR',
        atoms='C:4 H:9 O:1',
        thermo=(NASA([10.00, 455.22],
                     [ 3.59625500E+00,  3.38947981E-02,  7.37257079E-06,
                      -3.99275335E-08,  2.49019944E-11, -1.04661116E+04,
                       1.18269265E+01]),
                NASA([455.22, 3000.00],
                     [ 2.49586309E+00,  4.35639890E-02, -2.44887770E-05,
                       6.73363769E-09, -7.23862433E-13, -1.03659285E+04,
                       1.62696907E+01])))

species(name='performic_acid',
        atoms='C:1 H:2 O:3',
        thermo=(NASA([10.00, 590.95],
                     [ 3.92633851E+00,  4.24517168E-03,  6.71106764E-05,
                      -1.36545385E-07,  8.03337864E-11, -3.63028176E+04,
                       8.06485813E+00]),
                NASA([590.95, 3000.00],
                     [ 4.39992934E+00,  1.85411415E-02, -1.36005501E-05,
                       4.62292431E-09, -5.88463603E-13, -3.66643888E+04,
                       3.44353230E+00])))

species(name='disub_c4ether',
        atoms='C:4 H:8 O:2',
        thermo=(NASA([10.00, 413.50],
                     [ 3.78241323E+00,  1.89501763E-02,  8.65302396E-05,
                      -1.80580575E-07,  1.13656264E-10, -4.02870105E+04,
                       1.09982450E+01]),
                NASA([413.50, 3000.00],
                     [ 4.29420885E-01,  5.13851903E-02, -3.11292293E-05,
                       9.11498284E-09, -1.03192718E-12, -4.00097162E+04,
                       2.42134976E+01])))

species(name='aQOOHb',
        atoms='C:4 H:9 O:3',
        thermo=(NASA([10.00, 412.78],
                     [ 3.15498836E+00,  8.55068303E-02, -2.35307993E-04,
                       4.71983261E-07, -3.62709267E-10, -2.90002265E+04,
                       1.52522123E+01]),
                NASA([412.78, 3000.00],
                     [ 4.18099845E+00,  5.26168288E-02, -3.23998410E-05,
                       9.59389339E-09, -1.09464519E-12, -2.88894316E+04,
                       1.35782328E+01])))

species(name='H',
        atoms='H:1',
        thermo=(NASA([10.00, 794.01],
                     [ 2.50000000E+00,  1.99051163E-15, -1.19089508E-17,
                       2.10805655E-20, -1.11017699E-23,  2.54725594E+04,
                      -4.61279342E-01]),
                NASA([794.01, 3000.00],
                     [ 2.50000000E+00,  1.52667235E-14, -1.58445285E-17,
                       6.63088600E-21, -9.62111674E-25,  2.54725594E+04,
                      -4.61279342E-01])))

species(name='aadduct',
        atoms='C:4 H:9 O:3',
        thermo=(NASA([10.00, 449.84],
                     [ 3.06901904E+00,  9.20724491E-02, -2.68085092E-04,
                       5.15249897E-07, -3.68046586E-10, -3.00903861E+04,
                       1.46591735E+01]),
                NASA([449.84, 3000.00],
                     [ 4.11210745E+00,  5.16955724E-02, -2.97401041E-05,
                       8.32758939E-09, -9.08861448E-13, -2.98695451E+04,
                       1.39578825E+01])))

species(name='trisub_epoxy',
        atoms='C:4 H:8 O:2',
        thermo=(NASA([10.00, 209.19],
                     [ 3.75295042E+00,  2.37546930E-02,  1.26610110E-04,
                      -4.78364365E-07,  5.79468168E-10, -4.18588618E+04,
                       1.12739684E+01]),
                NASA([209.19, 3000.00],
                     [ 2.64185254E+00,  4.50006531E-02, -2.57361066E-05,
                       7.15266054E-09, -7.72980731E-13, -4.18123762E+04,
                       1.48960343E+01])))

species(name='ibutenol',
        atoms='C:4 H:8 O:1',
        thermo=(NASA([10.00, 135.97],
                     [ 3.95714996E+00,  5.72646980E-03,  4.63611760E-04,
                      -3.04137514E-06,  6.85019471E-09, -2.37162482E+04,
                       8.21931848E+00]),
                NASA([135.97, 3000.00],
                     [ 3.32467612E+00,  3.69033556E-02, -1.89960416E-05,
                       4.73417677E-09, -4.59705291E-13, -2.37106695E+04,
                       9.58133237E+00])))

species(name='aQOOH[O]',
        atoms='C:4 H:9 O:3',
        thermo=(NASA([10.00, 488.36],
                     [ 3.54559533E+00,  3.89536133E-02,  8.47689703E-05,
                      -2.45147486E-07,  1.76157259E-10, -2.31710480E+04,
                       1.34685910E+01]),
                NASA([488.36, 3000.00],
                     [ 3.94214913E+00,  5.71928314E-02, -3.72516212E-05,
                       1.15209013E-08, -1.35808341E-12, -2.34660089E+04,
                       9.21628964E+00])))

species(name='ipropyl',
        atoms='C:3 H:7',
        thermo=(NASA([10.00, 421.76],
                     [ 3.73943775E+00,  3.10070157E-02, -1.51196908E-04,
                       4.35367329E-07, -3.85565052E-10,  9.49213457E+03,
                       7.79448918E+00]),
                NASA([421.76, 3000.00],
                     [-4.74526725E-01,  3.20862468E-02, -1.67340747E-05,
                       4.21365136E-09, -4.13155573E-13,  1.01934458E+04,
                       2.85865912E+01])))

species(name='aRO2',
        atoms='C:4 H:9 O:3',
        thermo=(NASA([10.00, 670.36],
                     [ 3.45405325E+00,  4.74751311E-02,  9.77507759E-06,
                      -6.31019603E-08,  3.75500067E-11, -3.44722572E+04,
                       1.39284976E+01]),
                NASA([670.36, 3000.00],
                     [ 5.04137652E+00,  5.19952978E-02, -3.16472789E-05,
                       9.22798587E-09, -1.03598915E-12, -3.49994498E+04,
                       4.56056770E+00])))

species(name='O2',
        atoms='O:2',
        thermo=(NASA([10.00, 605.96],
                     [ 3.50743498E+00, -4.43860349E-04,  1.45938058E-06,
                       1.61509333E-09, -2.32050052E-12, -9.24756224E+02,
                       4.72183634E+00]),
                NASA([605.96, 3000.00],
                     [ 2.87462882E+00,  2.17840991E-03, -1.18262921E-06,
                       2.86910493E-10, -2.53297146E-14, -8.19517838E+02,
                       7.69331810E+00])))

species(name='formic_acid',
        atoms='C:1 H:2 O:2',
        thermo=(NASA([10.00, 741.38],
                     [ 4.06855785E+00, -4.74562133E-03,  4.71797900E-05,
                      -6.07490052E-08,  2.51286794E-11, -4.66880837E+04,
                       6.53681035E+00]),
                NASA([741.38, 3000.00],
                     [ 1.13645847E+00,  1.74953124E-02, -1.08112403E-05,
                       3.08075326E-09, -3.34892658E-13, -4.64297918E+04,
                       1.86149484E+01])))

species(name='propene',
        atoms='C:3 H:6',
        thermo=(NASA([10.00, 519.53],
                     [ 3.98723879E+00,  4.72040503E-04,  6.51776229E-05,
                      -9.89891002E-08,  4.91141123E-11, -1.54714622E+03,
                       6.98071210E+00]),
                NASA([519.53, 3000.00],
                     [ 3.79893331E-01,  2.82457690E-02, -1.50108430E-05,
                       3.90894069E-09, -4.00521928E-13, -1.17231888E+03,
                       2.20218922E+01])))

species(name='aQOOHg',
        atoms='C:4 H:9 O:3',
        thermo=(NASA([10.00, 455.48],
                     [ 3.62522127E+00,  2.83222320E-02,  2.08527447E-04,
                      -5.67427418E-07,  4.35169138E-10, -2.64736192E+04,
                       1.26617758E+01]),
                NASA([455.48, 3000.00],
                     [ 5.13914202E+00,  5.96270859E-02, -4.14435328E-05,
                       1.34202375E-08, -1.63474553E-12, -2.70741756E+04,
                       1.46991116E+00])))

species(name='ibut_peroxyacid',
        atoms='C:4 H:8 O:3',
        thermo=(NASA([10.00, 1386.21],
                     [ 3.50995385E+00,  4.78670384E-02, -2.40781384E-05,
                       3.71046938E-09,  3.85442115E-13, -4.97622956E+04,
                       1.22017268E+01]),
                NASA([1386.21, 3000.00],
                     [ 1.24543146E+01,  3.02396862E-02, -1.38577031E-05,
                       3.05328904E-09, -2.63982457E-13, -5.30281789E+04,
                      -3.67061828E+01])))

species(name='HO2',
        atoms='H:1 O:2',
        thermo=(NASA([10.00, 891.11],
                     [ 4.02887004E+00, -1.75769289E-03,  1.08726004E-05,
                      -1.13812972E-08,  3.90113097E-12,  4.95165001E+02,
                       4.69302008E+00]),
                NASA([891.11, 3000.00],
                     [ 3.06571044E+00,  4.28505005E-03, -2.19325920E-06,
                       5.58882699E-10, -5.61246669E-14,  5.98557610E+02,
                       8.84564156E+00])))

species(name='CH3',
        atoms='C:1 H:3',
        thermo=(NASA([10.00, 616.77],
                     [ 3.98929952E+00,  5.45150461E-04,  9.01320092E-06,
                      -1.08320497E-08,  4.38985879E-12,  1.65859883E+04,
                       2.22446886E-01]),
                NASA([616.77, 3000.00],
                     [ 3.35928237E+00,  4.63117126E-03, -9.24365433E-07,
                      -9.02514624E-11,  3.56905106E-14,  1.66637014E+04,
                       2.95743732E+00])))

#-------------------------------------------------------------------------------
# Reaction data
#-------------------------------------------------------------------------------

# Reaction 1
chebyshev_reaction('aQOOH[O] (+ M) <=> aQOOHb (+ M)',
                   Tmin=180.0, Tmax=1500.0,
                   Pmin=(0.01, 'atm'), Pmax=(98.692, 'atm'),
                   coeffs=[[-2.20800e+00,  1.52700e+00, -2.28500e-01,  3.58900e-02,  6.83800e-03, -1.16900e-02,  1.75100e-03,  1.60000e-03],
                           [-4.00300e+00,  1.54600e+00,  2.42000e-01, -3.71000e-02, -1.89600e-02,  1.06200e-02, -2.35200e-03, -8.97800e-04],
                           [-3.07900e+00,  4.13500e-01,  8.34300e-02,  1.02600e-02, -1.36700e-02, -2.22200e-03,  1.44600e-03, -4.02000e-04],
                           [-1.69700e+00, -1.37100e-02, -3.20600e-03,  2.64600e-02,  6.34400e-03, -4.30300e-03, -9.25600e-04,  3.72500e-04],
                           [-8.69300e-01, -1.46300e-01, -5.21600e-02,  1.34400e-02,  1.23100e-02,  3.90700e-05, -1.29200e-03, -1.68100e-04],
                           [-3.99400e-01, -1.30500e-01, -5.86100e-02, -2.64400e-03,  7.20000e-03,  2.08600e-03, -3.41200e-04, -2.34400e-04],
                           [-1.68400e-01, -7.54100e-02, -3.02200e-02, -8.55500e-03, -4.72900e-04,  2.03800e-03,  3.65800e-04, -2.05200e-04],
                           [-6.74100e-02, -2.54700e-02, -1.21400e-02, -6.44000e-03, -4.27600e-04, -2.20500e-04,  3.38900e-05,  2.57200e-04],
                           [-5.38100e-03, -2.10800e-02, -8.21500e-03,  3.58700e-03, -2.06700e-03, -2.47500e-04,  4.38600e-04, -3.43800e-04],
                           [-1.30200e-03,  2.68900e-03, -5.94100e-03, -4.18900e-03,  2.88600e-03,  3.91300e-04, -6.28000e-04,  1.20800e-04]])

# Reaction 2
chebyshev_reaction('aQOOHg (+ M) <=> aQOOHb (+ M)',
                   Tmin=180.0, Tmax=1500.0,
                   Pmin=(0.01, 'atm'), Pmax=(98.692, 'atm'),
                   coeffs=[[-4.47600e+00,  5.15200e-01, -1.96500e-01, -2.45600e-02,  3.09300e-03,  8.32600e-04, -4.26600e-04,  9.10700e-05],
                           [-1.09200e-01,  2.56400e+00,  1.71500e-01, -5.11400e-02, -2.02400e-02,  2.55700e-03,  1.87300e-03, -2.70300e-04],
                           [-3.27500e+00,  2.77400e-01,  2.16200e-01,  6.47600e-02, -1.64700e-02, -8.31600e-03,  1.28500e-03,  8.47800e-04],
                           [-2.20100e+00, -4.51200e-01,  6.21700e-03,  5.87200e-02,  1.38500e-02, -4.46800e-03, -2.58900e-03,  3.90400e-04],
                           [-1.06400e+00, -3.72600e-01, -1.04900e-01,  8.05600e-03,  1.27100e-02,  3.50900e-03, -9.32300e-04, -6.26600e-04],
                           [-3.90800e-01, -1.46900e-01, -8.18900e-02, -2.08300e-02, -6.76500e-04,  3.69100e-03,  1.28000e-03, -2.51200e-04],
                           [-9.31100e-02,  1.37200e-02, -2.64400e-02, -1.69900e-02, -6.93800e-03,  8.92800e-05,  1.14100e-03,  2.59700e-04],
                           [ 4.22600e-03,  5.05500e-02,  1.28000e-02, -1.04200e-03, -4.84300e-03, -1.95500e-03,  2.20300e-06,  2.31700e-04],
                           [ 6.65800e-03,  2.32300e-02,  1.68300e-02,  9.96800e-03,  7.38300e-04, -1.66200e-03, -6.82200e-04, -3.29600e-05],
                           [-9.22200e-03, -1.19300e-02,  1.16200e-03,  8.82300e-03,  4.46100e-03,  7.59200e-05, -6.49100e-04, -2.03800e-04]])

# Reaction 3
chebyshev_reaction('aRO2 (+ M) <=> aQOOHb (+ M)',
                   Tmin=180.0, Tmax=1500.0,
                   Pmin=(0.01, 'atm'), Pmax=(98.692, 'atm'),
                   coeffs=[[-5.92200e+00,  9.73400e-01,  4.98400e-02, -1.66600e-02, -7.11200e-03, -1.66000e-04,  5.31300e-04,  1.15000e-04],
                           [ 5.04600e+00,  1.49000e+00,  1.30400e-01, -2.58800e-02, -1.13300e-02, -9.90000e-04,  7.50000e-04,  2.28500e-04],
                           [-2.47800e+00,  5.99600e-01,  1.23200e-01,  4.65000e-03, -6.16000e-03, -1.93200e-03,  4.06700e-05,  1.69500e-04],
                           [-1.59300e+00, -4.69100e-02,  3.84900e-02,  2.74800e-02,  2.55000e-03, -2.19800e-03, -6.53700e-04,  6.23300e-05],
                           [-9.43500e-01, -2.47900e-01, -4.36500e-02,  2.03600e-02,  8.54700e-03, -5.45800e-04, -8.73800e-04, -8.54000e-05],
                           [-4.64300e-01, -1.85400e-01, -6.42000e-02,  8.48500e-04,  6.37600e-03,  1.23100e-03, -3.15200e-04, -1.46000e-04],
                           [-1.87300e-01, -7.64900e-02, -4.18000e-02, -7.49400e-03,  7.22800e-04,  9.80200e-04,  3.20600e-04, -8.77400e-06],
                           [-7.94200e-02, -1.59800e-02, -1.69600e-02, -3.82700e-03, -1.42500e-03, -2.88300e-04,  2.51600e-04,  1.20300e-04],
                           [ 7.34500e-03, -7.61300e-04, -6.78100e-03,  2.63200e-04,  3.41600e-04, -5.13100e-04, -2.01900e-04,  2.36100e-05],
                           [-1.68600e-02,  2.19600e-03, -7.74400e-03, -2.44800e-04,  1.75800e-03,  4.13100e-04, -2.68600e-04, -1.58800e-04]])

# Reaction 4
chebyshev_reaction('aadduct (+ M) <=> aQOOHb (+ M)',
                   Tmin=180.0, Tmax=1500.0,
                   Pmin=(0.01, 'atm'), Pmax=(98.692, 'atm'),
                   coeffs=[[-7.64600e+00,  3.97100e-02,  1.20100e-01, -2.29100e-02, -7.28500e-03, -5.77700e-04,  8.66900e-04,  6.83200e-05],
                           [ 1.47800e-01,  1.79800e+00,  2.02500e-01, -3.50800e-02, -8.37500e-03, -1.10300e-03,  8.27400e-04,  1.31800e-04],
                           [-2.66300e+00,  6.62500e-01,  1.03300e-01, -4.56800e-03, -5.09300e-03, -1.83500e-03, -9.81500e-05,  2.21300e-04],
                           [-1.71600e+00, -4.97800e-03,  3.61000e-02,  2.43000e-02,  1.06900e-03, -1.35700e-03, -7.67900e-04, -2.38800e-04],
                           [-1.01700e+00, -1.96800e-01, -3.82300e-02,  1.70200e-02,  1.04400e-02, -1.38300e-03, -7.72300e-04,  1.63600e-04],
                           [-5.04900e-01, -1.60900e-01, -6.41300e-02,  1.51800e-03,  5.92200e-03,  1.82200e-03, -5.79400e-04, -1.83800e-04],
                           [-2.07300e-01, -6.50000e-02, -4.63000e-02, -7.38300e-03,  1.41700e-03,  5.95400e-04,  4.27000e-04,  6.11200e-05],
                           [-9.34500e-02,  2.93400e-03, -2.02200e-02, -5.59100e-03,  1.63100e-06, -8.44300e-04,  2.14500e-04,  3.47400e-04],
                           [-1.37800e-02, -1.90300e-02, -4.98500e-04,  8.52000e-04, -8.13900e-04, -2.86600e-04,  1.17000e-04, -3.48800e-04],
                           [-2.98900e-02,  1.61800e-02, -8.33000e-03, -2.89600e-04,  1.33300e-03,  1.09200e-03, -8.21900e-04,  3.10400e-05]])

# Reaction 5
chebyshev_reaction('O2 + aR (+ M) <=> aQOOHb (+ M)',
                   Tmin=180.0, Tmax=1500.0,
                   Pmin=(0.01, 'atm'), Pmax=(98.692, 'atm'),
                   coeffs=[[ 5.77300e+00,  5.16600e+00, -1.13700e+00, -2.49000e-02, -1.93000e-02, -3.44000e-02,  2.76500e-02,  1.02900e-02],
                           [-2.98600e+00,  2.72100e-01,  1.00000e+00, -2.63600e-01,  5.76400e-02,  4.07400e-02, -4.18600e-02, -7.51100e-03],
                           [-1.79500e+00, -2.61900e-01,  3.20100e-01,  3.05800e-02, -2.81800e-02,  2.07700e-02,  3.54100e-03, -7.65100e-03],
                           [-1.03900e+00, -4.09100e-01,  5.14000e-02,  3.52700e-02, -1.23400e-02,  4.15100e-03,  7.80000e-03, -6.61500e-04],
                           [-5.02700e-01, -2.81300e-01, -2.54500e-02,  8.09500e-03, -5.94000e-03, -7.28000e-04,  3.15000e-03,  1.69800e-03],
                           [-1.93600e-01, -1.34900e-01, -1.52300e-02, -5.13500e-03, -6.54300e-03, -1.60600e-03,  6.83600e-04,  1.07900e-03],
                           [-4.09800e-02, -5.33000e-02,  1.11300e-02, -1.27300e-03, -6.19300e-03, -2.42300e-03, -6.97600e-05,  3.20600e-04],
                           [ 4.26400e-03, -1.81700e-02,  1.75200e-02,  7.25900e-03, -1.82500e-03, -2.66500e-03, -7.56300e-04,  5.16300e-05],
                           [ 1.25800e-02, -2.15600e-02,  1.07100e-02,  1.06800e-02,  1.84300e-03, -8.36200e-04, -1.14000e-03, -2.81200e-04],
                           [-2.86400e-03, -1.36100e-02, -5.45300e-03,  5.74500e-03,  4.62100e-03,  7.89700e-04, -8.83200e-04, -3.78300e-04]])
#  aQOOHb(+M) <=> aQOOH[O](+M)                         1.000e+00 0.000     0.000
#      TCHEB/ 180.000   1500.000 /
#      PCHEB/ 0.010     98.692   /
#      CHEB/ 10 8/
#      CHEB/ -1.158e+01   1.527e+00    -2.285e-01   3.589e-02    6.838e-03   /
#      CHEB/ -1.169e-02   1.751e-03    1.600e-03    2.007e+00    1.546e+00   /
#      CHEB/ 2.420e-01    -3.710e-02   -1.896e-02   1.062e-02    -2.352e-03  /
#      CHEB/ -8.978e-04   -3.001e+00   4.135e-01    8.343e-02    1.026e-02   /
#      CHEB/ -1.367e-02   -2.222e-03   1.446e-03    -4.020e-04   -1.651e+00  /
#      CHEB/ -1.371e-02   -3.206e-03   2.646e-02    6.344e-03    -4.303e-03  /
#      CHEB/ -9.256e-04   3.725e-04    -8.539e-01   -1.463e-01   -5.216e-02  /
#      CHEB/ 1.344e-02    1.231e-02    3.907e-05    -1.292e-03   -1.681e-04  /
#      CHEB/ -3.946e-01   -1.305e-01   -5.861e-02   -2.644e-03   7.200e-03   /
#      CHEB/ 2.086e-03    -3.412e-04   -2.344e-04   -1.666e-01   -7.541e-02  /
#      CHEB/ -3.022e-02   -8.555e-03   -4.729e-04   2.038e-03    3.658e-04   /
#      CHEB/ -2.052e-04   -6.670e-02   -2.547e-02   -1.214e-02   -6.440e-03  /
#      CHEB/ -4.276e-04   -2.205e-04   3.389e-05    2.572e-04    -5.186e-03  /
#      CHEB/ -2.108e-02   -8.215e-03   3.587e-03    -2.067e-03   -2.475e-04  /
#      CHEB/ 4.386e-04    -3.438e-04   -1.295e-03   2.689e-03    -5.941e-03  /
#      CHEB/ -4.189e-03   2.886e-03    3.913e-04    -6.280e-04   1.208e-04   /

# Reaction 6
chebyshev_reaction('aQOOHg (+ M) <=> aQOOH[O] (+ M)',
                   Tmin=180.0, Tmax=1500.0,
                   Pmin=(0.01, 'atm'), Pmax=(98.692, 'atm'),
                   coeffs=[[-6.10200e+00,  1.05300e+00, -7.02000e-02,  3.95100e-02, -5.25200e-03, -6.29000e-04, -6.88100e-05,  9.16100e-05],
                           [ 5.61600e-02,  1.10300e+00, -1.24200e-01,  4.25900e-03,  9.13200e-03, -1.87400e-03, -7.82400e-05,  1.16200e-04],
                           [-3.08400e+00,  3.24400e-01,  2.98800e-02, -1.65600e-02, -4.15900e-03, -2.41500e-06, -2.70300e-05,  8.37700e-05],
                           [-1.88300e+00, -1.13100e-01,  6.84000e-02,  1.54500e-02, -7.47100e-03, -8.88000e-04,  5.15800e-04, -9.17000e-05],
                           [-9.87700e-01, -2.16400e-01,  5.24800e-03,  2.47100e-02, -1.65800e-04, -1.65900e-03,  2.73300e-04,  9.40200e-05],
                           [-4.30000e-01, -1.48700e-01, -4.05200e-02,  9.47000e-03,  4.85000e-03, -5.56900e-04, -3.38700e-04,  1.00900e-04],
                           [-1.60900e-01, -4.80100e-02, -4.03400e-02, -5.64300e-03,  3.94500e-03,  8.97100e-04, -3.12400e-04, -9.80900e-05],
                           [-5.13900e-02,  4.04900e-03, -1.83600e-02, -7.67200e-03,  3.24600e-04,  1.09000e-03,  9.12500e-05, -2.09700e-04],
                           [-1.29500e-02,  1.13600e-02, -4.88000e-03, -3.67000e-03, -2.57100e-04,  2.36100e-04,  5.45700e-05,  9.53000e-06],
                           [ 4.48800e-03,  1.93400e-03, -3.70900e-03, -1.99200e-04,  1.37400e-04, -5.33700e-05,  4.32700e-05, -8.55600e-06]])

# Reaction 7
chebyshev_reaction('aRO2 (+ M) <=> aQOOH[O] (+ M)',
                   Tmin=180.0, Tmax=1500.0,
                   Pmin=(0.01, 'atm'), Pmax=(98.692, 'atm'),
                   coeffs=[[-9.26900e+00,  2.00700e+00, -1.16700e-01,  1.27100e-02, -3.28800e-03, -7.39500e-05, -6.90400e-04,  3.54300e-04],
                           [ 7.72600e+00,  5.95900e-01,  1.19900e-02,  2.08600e-02, -1.74300e-03,  2.44400e-04,  4.48700e-04, -3.97800e-04],
                           [-3.01000e+00,  1.53200e-01, -2.71800e-02,  1.36400e-03,  4.10000e-04, -1.56300e-03,  6.35800e-04,  8.00400e-06],
                           [-1.58800e+00,  4.90900e-02,  1.82800e-03, -4.35900e-03,  2.49600e-03, -5.60500e-04, -4.75600e-04,  1.88600e-04],
                           [-8.16800e-01, -2.50900e-02,  1.01600e-02,  2.80000e-04,  3.96400e-04,  2.22900e-04,  1.28800e-05, -9.45100e-05],
                           [-3.98000e-01, -5.94800e-02, -3.01100e-03,  3.45700e-03,  6.32200e-04, -1.16500e-04, -1.70700e-06,  6.23200e-05],
                           [-2.00400e-01, -6.41800e-02, -6.39600e-03,  2.72600e-03, -4.02500e-04,  4.02500e-04,  2.06400e-04, -1.42300e-04],
                           [-9.93200e-02, -3.67100e-02, -1.37000e-02, -2.51800e-03,  2.14000e-03,  1.56600e-04, -2.69200e-04,  1.09700e-04],
                           [-2.20200e-02, -2.83700e-02, -1.90800e-02,  1.76300e-03, -4.52800e-04, -1.23200e-04,  5.00900e-04, -1.14700e-04],
                           [-5.32200e-03,  6.07400e-03, -8.52900e-03, -7.65100e-03,  1.35200e-03,  6.84500e-04, -5.06000e-04,  8.80700e-05]])

# Reaction 8
chebyshev_reaction('aadduct (+ M) <=> aQOOH[O] (+ M)',
                   Tmin=180.0, Tmax=1500.0,
                   Pmin=(0.01, 'atm'), Pmax=(98.692, 'atm'),
                   coeffs=[[-1.09600e+01,  1.16600e+00, -1.09500e-02,  1.45300e-02, -3.58300e-03, -2.29100e-04, -4.10700e-04,  3.08600e-04],
                           [ 2.76600e+00,  7.98400e-01,  1.72000e-02,  5.24300e-03,  7.89900e-04, -1.25600e-04,  6.02700e-04, -5.00900e-04],
                           [-3.18000e+00,  2.54200e-01, -3.30200e-02, -4.53000e-03,  3.70000e-04, -1.17400e-03,  4.42100e-04,  7.82000e-06],
                           [-1.70900e+00,  1.12100e-01,  7.51400e-04, -5.75400e-03,  1.34600e-03,  2.43900e-04, -6.02900e-04, -7.60800e-05],
                           [-8.98400e-01,  1.92500e-02,  1.02200e-02, -2.70900e-03,  2.12200e-03, -4.12000e-04,  5.62000e-05,  1.24100e-04],
                           [-4.40800e-01, -2.90200e-02, -7.54600e-03,  4.43300e-03,  2.15200e-05,  4.53000e-04, -2.37700e-04,  1.04800e-05],
                           [-2.19900e-01, -4.57300e-02, -1.14100e-02,  2.77800e-03,  2.70800e-04,  9.66600e-05,  2.33800e-04, -4.57800e-05],
                           [-1.16000e-01, -2.56300e-02, -1.58600e-02, -3.44900e-03,  3.14100e-03, -2.42400e-04, -2.92700e-04,  2.86200e-04],
                           [-3.95900e-02, -3.33200e-02, -1.42500e-02,  1.63300e-03, -1.11500e-03, -4.02300e-06,  7.76000e-04, -4.32200e-04],
                           [-2.16100e-02,  1.26200e-02, -9.32500e-03, -7.10700e-03,  5.84100e-04,  1.45600e-03, -1.00400e-03,  2.16500e-04]])

# Reaction 9
chebyshev_reaction('O2 + aR (+ M) <=> aQOOH[O] (+ M)',
                   Tmin=180.0, Tmax=1500.0,
                   Pmin=(0.01, 'atm'), Pmax=(98.692, 'atm'),
                   coeffs=[[ 3.31200e+00,  4.15900e+00, -1.19200e+00,  2.03800e-01,  7.16000e-02, -4.28200e-02,  6.41100e-03,  3.35200e-03],
                           [-2.19500e+00,  4.43000e-02,  7.61300e-01, -4.48500e-01,  1.71100e-02,  6.01600e-02, -2.10000e-02, -2.37500e-03],
                           [-1.30400e+00, -6.61500e-03,  3.46600e-01, -4.32600e-02, -6.15600e-02,  1.73100e-02,  6.88400e-03, -4.65400e-03],
                           [-8.33100e-01, -1.56100e-01,  1.71000e-01,  4.14200e-02, -2.86600e-02, -3.98500e-03,  5.22600e-03, -2.02300e-04],
                           [-4.89600e-01, -1.87400e-01,  5.65500e-02,  4.04700e-02, -5.46200e-03, -4.61300e-03,  6.07800e-04,  8.42800e-04],
                           [-2.57800e-01, -1.66900e-01,  2.07300e-03,  2.38600e-02,  2.32500e-03, -1.61500e-03, -6.35900e-04,  2.71600e-04],
                           [-1.35900e-01, -1.20400e-01, -2.29800e-02,  9.69900e-03,  3.33300e-03, -6.59800e-05, -2.38900e-04, -1.32500e-04],
                           [-7.12200e-02, -6.50000e-02, -2.84100e-02,  2.01700e-03,  2.29200e-03,  6.75000e-04,  1.09700e-06, -2.03400e-04],
                           [-1.91900e-02, -3.64200e-02, -2.41900e-02, -3.64400e-03,  9.22200e-04,  1.13300e-03, -1.32200e-04, -7.23400e-05],
                           [ 2.87300e-03,  4.14100e-03, -1.80000e-02, -4.24300e-03, -4.55700e-04,  8.13500e-04,  1.41000e-04, -9.67200e-05]])
#  aQOOHb(+M) <=> aQOOHg(+M)                           1.000e+00 0.000     0.000
#      TCHEB/ 180.000   1500.000 /
#      PCHEB/ 0.010     98.692   /
#      CHEB/ 10 8/
#      CHEB/ -9.579e+00   5.152e-01    -1.965e-01   -2.456e-02   3.093e-03   /
#      CHEB/ 8.326e-04    -4.266e-04   9.107e-05    2.699e+00    2.564e+00   /
#      CHEB/ 1.715e-01    -5.114e-02   -2.024e-02   2.557e-03    1.873e-03   /
#      CHEB/ -2.703e-04   -3.051e+00   2.774e-01    2.162e-01    6.476e-02   /
#      CHEB/ -1.647e-02   -8.316e-03   1.285e-03    8.478e-04    -2.107e+00  /
#      CHEB/ -4.512e-01   6.217e-03    5.872e-02    1.385e-02    -4.468e-03  /
#      CHEB/ -2.589e-03   3.904e-04    -1.036e+00   -3.726e-01   -1.049e-01  /
#      CHEB/ 8.056e-03    1.271e-02    3.509e-03    -9.323e-04   -6.266e-04  /
#      CHEB/ -3.830e-01   -1.469e-01   -8.189e-02   -2.083e-02   -6.765e-04  /
#      CHEB/ 3.691e-03    1.280e-03    -2.512e-04   -9.060e-02   1.372e-02   /
#      CHEB/ -2.644e-02   -1.699e-02   -6.938e-03   8.928e-05    1.141e-03   /
#      CHEB/ 2.597e-04    4.955e-03    5.055e-02    1.280e-02    -1.042e-03  /
#      CHEB/ -4.843e-03   -1.955e-03   2.203e-06    2.317e-04    6.680e-03   /
#      CHEB/ 2.323e-02    1.683e-02    9.968e-03    7.383e-04    -1.662e-03  /
#      CHEB/ -6.822e-04   -3.296e-05   -9.364e-03   -1.193e-02   1.162e-03   /
#      CHEB/ 8.823e-03    4.461e-03    7.592e-05    -6.491e-04   -2.038e-04  /
#  aQOOH[O](+M) <=> aQOOHg(+M)                         1.000e+00 0.000     0.000
#      TCHEB/ 180.000   1500.000 /
#      PCHEB/ 0.010     98.692   /
#      CHEB/ 10 8/
#      CHEB/ -1.835e+00   1.053e+00    -7.020e-02   3.951e-02    -5.252e-03  /
#      CHEB/ -6.290e-04   -6.881e-05   9.161e-05    -3.146e+00   1.103e+00   /
#      CHEB/ -1.242e-01   4.259e-03    9.132e-03    -1.874e-03   -7.824e-05  /
#      CHEB/ 1.162e-04    -2.939e+00   3.244e-01    2.988e-02    -1.656e-02  /
#      CHEB/ -4.159e-03   -2.415e-06   -2.703e-05   8.377e-05    -1.835e+00  /
#      CHEB/ -1.131e-01   6.840e-02    1.545e-02    -7.471e-03   -8.880e-04  /
#      CHEB/ 5.158e-04    -9.170e-05   -9.749e-01   -2.164e-01   5.248e-03   /
#      CHEB/ 2.471e-02    -1.658e-04   -1.659e-03   2.733e-04    9.402e-05   /