units(length='cm', time='s', quantity='mol', act_energy='kcal/mol')

ideal_gas(name='gas',
          elements="H D T C Ci O Oi N Ne Ar He Si S F Cl Br I X",
          species="""propene3ol       OH               disub_c4ether
                     H2O              disub_epoxy      gQOOHa
                     propene1ol       gQOOHb           ipropylOOH
                     galdoxy          galkene          CH2O
                     O2               gRO2             gQOOHg
                     gR               galdol           monosub_c4ether
                     HO2              gQOOH[O]""",
          reactions='all',
          initial_state=state(temperature=300.0, pressure=OneAtm))

#-------------------------------------------------------------------------------
# Element data
#-------------------------------------------------------------------------------

element(symbol='Ci', atomic_mass=13.003)
element(symbol='D', atomic_mass=2.014)
element(symbol='Oi', atomic_mass=18.0)
element(symbol='T', atomic_mass=3.016)
element(symbol='X', atomic_mass=195.083)
#-------------------------------------------------------------------------------
# Species data
#-------------------------------------------------------------------------------

species(name='propene3ol',
        atoms='C:3 H:6 O:1',
        thermo=(NASA([10.00, 444.81],
                     [ 3.92769709E+00,  4.89977303E-03,  1.13094874E-04,
                      -2.59008187E-07,  1.86205760E-10, -1.48121246E+04,
                       9.90805416E+00]),
                NASA([444.81, 3000.00],
                     [ 2.61720343E+00,  3.01777872E-02, -1.76511625E-05,
                       5.14864061E-09, -5.91153761E-13, -1.48290251E+04,
                       1.36683107E+01])))

species(name='OH',
        atoms='H:1 O:1',
        thermo=(NASA([10.00, 984.14],
                     [ 3.49686242E+00,  1.83973160E-04, -9.97634499E-07,
                       1.56942783E-09, -6.10128175E-13,  3.41673934E+03,
                       1.48093120E+00]),
                NASA([984.14, 3000.00],
                     [ 3.45221464E+00, -2.95124034E-04,  7.39418622E-07,
                      -2.89309866E-10,  3.53041498E-14,  3.45751599E+03,
                       1.85813897E+00])))

species(name='disub_c4ether',
        atoms='C:4 H:8 O:2',
        thermo=(NASA([10.00, 413.50],
                     [ 3.78241323E+00,  1.89501763E-02,  8.65302396E-05,
                      -1.80580575E-07,  1.13656264E-10, -3.97890354E+04,
                       1.09982450E+01]),
                NASA([413.50, 3000.00],
                     [ 4.29420885E-01,  5.13851903E-02, -3.11292293E-05,
                       9.11498284E-09, -1.03192718E-12, -3.95117410E+04,
                       2.42134976E+01])))

species(name='H2O',
        atoms='H:2 O:1',
        thermo=(NASA([10.00, 773.84],
                     [ 4.00473541E+00, -2.39729134E-04,  8.11862955E-07,
                       1.47891862E-09, -1.19783539E-12, -3.03533807E+04,
                      -9.96254147E-02]),
                NASA([773.84, 3000.00],
                     [ 3.52133374E+00,  1.05377009E-03,  6.40722099E-07,
                      -3.86240235E-10,  5.49243294E-14, -3.02424794E+04,
                       2.34173094E+00])))

species(name='disub_epoxy',
        atoms='C:4 H:8 O:2',
        thermo=(NASA([10.00, 549.41],
                     [ 3.89863211E+00,  5.97532637E-03,  1.66685676E-04,
                      -3.10743768E-07,  1.78330192E-10, -3.64635049E+04,
                       1.13847308E+01]),
                NASA([549.41, 3000.00],
                     [-6.40277648E-01,  6.05960003E-02, -4.13427220E-05,
                       1.31555461E-08, -1.57685017E-12, -3.62903881E+04,
                       2.76005436E+01])))

species(name='gQOOHa',
        atoms='C:4 H:9 O:3',
        thermo=(NASA([10.00, 160.74],
                     [ 3.80808147E+00,  2.31043884E-02,  5.26945984E-04,
                      -3.11500696E-06,  6.03881958E-09, -2.41219440E+04,
                       1.17645316E+01]),
                NASA([160.74, 3000.00],
                     [ 2.90630300E+00,  6.50241173E-02, -4.60073244E-05,
                       1.51330930E-08, -1.87074267E-12, -2.41181194E+04,
                       1.36838819E+01])))

species(name='propene1ol',
        atoms='C:3 H:6 O:1',
        thermo=(NASA([10.00, 459.42],
                     [ 3.91245344E+00,  5.85800161E-03,  1.15412006E-04,
                      -2.68014417E-07,  1.91800131E-10, -2.02576693E+04,
                       8.14807684E+00]),
                NASA([459.42, 3000.00],
                     [ 3.14049093E+00,  2.95550898E-02, -1.73843684E-05,
                       5.11506211E-09, -5.92966137E-13, -2.03658919E+04,
                       9.32215170E+00])))

species(name='gQOOHb',
        atoms='C:4 H:9 O:3',
        thermo=(NASA([10.00, 1018.67],
                     [ 3.99028351E+00,  4.29665712E-02,  2.28338778E-05,
                      -5.67914439E-08,  2.29383258E-11, -2.34859587E+04,
                       1.20326731E+01]),
                NASA([1018.67, 3000.00],
                     [ 1.38304153E+01,  3.88527019E-02, -2.19473905E-05,
                       5.78719895E-09, -5.85097740E-13, -2.72820434E+04,
                      -4.44147388E+01])))

species(name='ipropylOOH',
        atoms='C:3 H:7 O:2',
        thermo=(NASA([10.00, 405.01],
                     [ 3.30075623E+00,  7.58672756E-02, -3.35754269E-04,
                       8.05972164E-07, -6.68864582E-10, -2.24080388E+02,
                       1.43372849E+01]),
                NASA([405.01, 3000.00],
                     [ 2.51742509E+00,  3.72760950E-02, -2.12450220E-05,
                       5.83593926E-09, -6.22110649E-13,  2.19327218E+02,
                       2.20991392E+01])))

species(name='galdoxy',
        atoms='C:4 H:7 O:2',
        thermo=(NASA([10.00, 209.62],
                     [ 3.82641108E+00,  1.84758886E-02,  3.43073800E-04,
                      -1.82817005E-06,  2.98516720E-09, -1.92449984E+04,
                       1.17972706E+01]),
                NASA([209.62, 3000.00],
                     [ 4.22049016E+00,  4.03370149E-02, -2.36129482E-05,
                       6.72979114E-09, -7.47862493E-13, -1.93260682E+04,
                       8.97211724E+00])))

species(name='galkene',
        atoms='C:4 H:8 O:1',
        thermo=(NASA([10.00, 383.47],
                     [ 3.84035604E+00,  1.20378740E-02,  1.87486319E-04,
                      -5.44759148E-07,  4.80711015E-10, -1.82184235E+04,
                       1.02570291E+01]),
                NASA([383.47, 3000.00],
                     [ 4.00413385E+00,  3.79025144E-02, -2.15435710E-05,
                       6.15213311E-09, -6.97446345E-13, -1.84337128E+04,
                       6.98052628E+00])))

species(name='CH2O',
        atoms='C:1 H:2 O:1',
        thermo=(NASA([10.00, 601.31],
                     [ 4.03190845E+00, -1.93233367E-03,  8.89743345E-06,
                       2.98105926E-09, -7.90813886E-12, -1.42276270E+04,
                       3.47574660E+00]),
                NASA([601.31, 3000.00],
                     [ 1.40134195E+00,  9.48858016E-03, -4.43088317E-06,
                       9.48452194E-10, -7.43790219E-14, -1.38013869E+04,
                       1.57423780E+01])))

species(name='O2',
        atoms='O:2',
        thermo=(NASA([10.00, 605.96],
                     [ 3.50743498E+00, -4.43860349E-04,  1.45938058E-06,
                       1.61509333E-09, -2.32050052E-12, -9.24756224E+02,
                       4.72183634E+00]),
                NASA([605.96, 3000.00],
                     [ 2.87462882E+00,  2.17840991E-03, -1.18262921E-06,
                       2.86910493E-10, -2.53297146E-14, -8.19517838E+02,
                       7.69331810E+00])))

species(name='gRO2',
        atoms='C:4 H:9 O:3',
        thermo=(NASA([10.00, 177.33],
                     [ 3.70632176E+00,  3.49733664E-02,  4.64036392E-04,
                      -3.18637835E-06,  6.38178607E-09, -2.72922394E+04,
                       1.24459269E+01]),
                NASA([177.33, 3000.00],
                     [ 4.82062697E+00,  5.17179689E-02, -3.18386818E-05,
                       9.52247045E-09, -1.10180288E-12, -2.73976100E+04,
                       7.14082953E+00])))

species(name='gQOOHg',
        atoms='C:4 H:9 O:3',
        thermo=(NASA([10.00, 475.03],
                     [ 3.42273720E+00,  4.98344215E-02,  6.47820920E-05,
                      -2.49842966E-07,  1.98636537E-10, -2.01791806E+04,
                       1.41578583E+01]),
                NASA([475.03, 3000.00],
                     [ 5.94049074E+00,  5.53778585E-02, -3.71708255E-05,
                       1.17540477E-08, -1.40812095E-12, -2.07201349E+04,
                       7.09201218E-01])))

species(name='gR',
        atoms='C:4 H:9 O:1',
        thermo=(NASA([10.00, 638.24],
                     [ 3.37074633E+00,  5.17529751E-02, -6.54872940E-05,
                       6.88084237E-08, -3.21569794E-11, -1.24575592E+04,
                       1.14339669E+01]),
                NASA([638.24, 3000.00],
                     [ 3.99410860E+00,  4.06314915E-02, -2.23932510E-05,
                       6.08356263E-09, -6.49884708E-13, -1.23901845E+04,
                       9.85769960E+00])))

species(name='galdol',
        atoms='C:4 H:8 O:2',
        thermo=(NASA([10.00, 506.68],
                     [ 3.85380874E+00,  9.21272695E-03,  1.86712348E-04,
                      -3.96417049E-07,  2.55528268E-10, -4.66763646E+04,
                       1.24312743E+01]),
                NASA([506.68, 3000.00],
                     [ 1.49710213E+00,  5.65979142E-02, -3.87709084E-05,
                       1.23682052E-08, -1.48287964E-12, -4.68069740E+04,
                       1.85531759E+01])))

species(name='monosub_c4ether',
        atoms='C:4 H:8 O:2',
        thermo=(NASA([10.00, 380.36],
                     [ 3.47743996E+00,  6.08051311E-02, -2.78518945E-04,
                       8.23182713E-07, -7.87158031E-10, -3.11991899E+04,
                       1.06415154E+01]),
                NASA([380.36, 3000.00],
                     [-1.09346901E+00,  5.35985968E-02, -3.21081420E-05,
                       9.20818293E-09, -1.01830294E-12, -3.04516298E+04,
                       3.35312368E+01])))

species(name='HO2',
        atoms='H:1 O:2',
        thermo=(NASA([10.00, 891.11],
                     [ 4.02887004E+00, -1.75769289E-03,  1.08726004E-05,
                      -1.13812972E-08,  3.90113097E-12,  4.95165001E+02,
                       4.69302008E+00]),
                NASA([891.11, 3000.00],
                     [ 3.06571044E+00,  4.28505005E-03, -2.19325920E-06,
                       5.58882699E-10, -5.61246669E-14,  5.98557610E+02,
                       8.84564156E+00])))

species(name='gQOOH[O]',
        atoms='C:4 H:9 O:3',
        thermo=(NASA([10.00, 535.23],
                     [ 3.83107445E+00,  1.02302002E-02,  2.29377261E-04,
                      -4.59095575E-07,  2.77765018E-10, -1.84033517E+04,
                       1.41034859E+01]),
                NASA([535.23, 3000.00],
                     [-4.19283096E-01,  7.69784620E-02, -5.57279000E-05,
                       1.81378295E-08, -2.18295635E-12, -1.84494651E+04,
                       2.72711816E+01])))

#-------------------------------------------------------------------------------
# Reaction data
#-------------------------------------------------------------------------------

# Reaction 1
chebyshev_reaction('gQOOH[O] (+ M) <=> gRO2 (+ M)',
                   Tmin=180.0, Tmax=1500.0,
                   Pmin=(0.01, 'atm'), Pmax=(98.692, 'atm'),
                   coeffs=[[ 9.07300e+00,  1.70700e+00, -2.23900e-01, -4.91800e-02,  6.31500e-03,  6.58000e-03,  7.84600e-04, -6.84900e-04],
                           [-1.45400e+00,  6.33400e-01,  1.15500e-01,  6.30800e-03, -1.25100e-02, -3.96500e-03,  1.12100e-03,  8.54700e-04],
                           [-1.22600e+00,  3.35000e-01,  6.29500e-02,  1.77000e-02, -4.62300e-04, -3.22100e-03, -9.62100e-04,  2.84200e-04],
                           [-7.08100e-01,  1.14300e-01,  2.21300e-02,  1.54900e-02,  5.42600e-03, -6.61100e-04, -1.33700e-03, -3.85000e-04],
                           [-4.05100e-01,  6.80300e-02,  1.53300e-02,  2.66300e-03,  1.22800e-03,  7.20500e-04,  5.43500e-06, -2.04900e-04],
                           [-1.99000e-01,  2.83800e-02,  9.40100e-03, -4.56300e-04, -8.65700e-04,  3.18200e-04,  3.86600e-04,  5.24900e-05],
                           [-6.55500e-02, -5.74300e-03, -2.70100e-05,  9.06700e-04,  3.28700e-04, -6.89700e-05, -4.38500e-05,  3.33100e-05],
                           [-3.28700e-02,  7.90900e-03,  5.94300e-04, -1.07800e-03, -4.12800e-04,  2.32400e-06,  7.18800e-05,  4.05100e-05],
                           [-1.24000e-02,  6.18300e-03,  9.93200e-04, -6.79700e-04, -4.11200e-04,  9.03600e-06,  4.20500e-05, -1.04300e-06],
                           [ 1.06800e-02, -9.31800e-03, -1.56400e-03,  1.41200e-03,  5.68900e-04, -1.68200e-04, -1.52200e-04, -1.98800e-05]])

# Reaction 2
chebyshev_reaction('gQOOHa (+ M) <=> gRO2 (+ M)',
                   Tmin=180.0, Tmax=1500.0,
                   Pmin=(0.01, 'atm'), Pmax=(98.692, 'atm'),
                   coeffs=[[ 2.77100e+00,  7.19400e-01, -1.36600e-01,  1.09400e-02,  5.98600e-03, -1.44800e-03, -4.07500e-04,  1.44800e-04],
                           [ 3.20000e+00,  1.11800e+00, -1.54400e-01, -6.37800e-03,  1.20300e-02, -5.24100e-04, -1.26000e-03,  1.24800e-04],
                           [-3.70700e-01,  5.45500e-01,  1.76500e-02, -3.42400e-02,  5.81600e-03,  3.60700e-03, -1.28800e-03, -3.44900e-04],
                           [-7.22500e-01,  2.01900e-01,  5.46500e-02, -2.01500e-02, -2.98500e-03,  3.88200e-03,  5.25200e-05, -6.55500e-04],
                           [-3.56800e-01,  8.75200e-02,  1.73800e-02, -6.98200e-05, -4.54500e-03,  1.12600e-03,  1.01700e-03, -3.83500e-04],
                           [-1.36400e-01,  4.06200e-02, -1.16400e-03,  2.48500e-03, -1.52200e-03, -4.10100e-04,  7.03800e-04,  4.04100e-05],
                           [-5.78900e-02,  1.31100e-02,  3.54800e-05, -1.06700e-03,  7.12400e-05, -2.50500e-04,  1.58800e-04,  1.47100e-04],
                           [-2.22900e-02,  5.51500e-03,  5.67400e-04, -1.62700e-03, -1.91300e-05,  4.10000e-05,  1.61000e-05,  6.21100e-05],
                           [-3.73800e-03,  5.47800e-03, -8.22700e-04, -7.22200e-04, -1.99300e-04,  5.76700e-05,  3.14900e-05,  9.69200e-06],
                           [ 2.72800e-03,  4.09100e-03, -1.03200e-03, -3.37100e-04, -1.32800e-04,  3.34400e-05,  1.94900e-05,  2.82400e-06]])

# Reaction 3
chebyshev_reaction('gQOOHg (+ M) <=> gRO2 (+ M)',
                   Tmin=180.0, Tmax=1500.0,
                   Pmin=(0.01, 'atm'), Pmax=(98.692, 'atm'),
                   coeffs=[[ 6.12400e+00,  4.86800e-01, -4.08800e-02,  6.83900e-03, -2.18200e-03,  2.84800e-04, -1.94900e-05, -2.36300e-05],
                           [ 9.18200e-01,  8.38400e-01, -6.00300e-02,  7.75000e-03, -1.87600e-03, -3.25800e-05,  2.64100e-05, -3.13300e-05],
                           [-6.78400e-01,  5.37400e-01, -2.07000e-02, -1.51200e-03,  1.95800e-03, -7.41900e-04,  1.22800e-05,  2.80900e-05],
                           [-6.61700e-01,  2.58300e-01,  1.33300e-03, -4.86400e-03,  3.20000e-03, -5.92200e-04, -1.53100e-04,  8.35500e-05],
                           [-3.25700e-01,  9.73000e-02,  2.88200e-03, -3.80500e-03,  2.35800e-03, -4.22900e-05, -2.66900e-04,  8.28300e-05],
                           [-1.27000e-01,  3.51800e-02, -1.07300e-03, -2.70500e-03,  1.29600e-03,  2.63100e-04, -2.32600e-04,  4.40700e-05],
                           [-5.04100e-02,  1.71000e-02, -2.33500e-03, -2.24500e-03,  6.20400e-04,  2.72200e-04, -1.33700e-04,  1.01400e-05],
                           [-1.82300e-02,  1.02200e-02, -1.88300e-03, -1.58900e-03,  2.25600e-04,  1.77800e-04, -5.30000e-05, -4.92600e-06],
                           [-1.72700e-03,  5.99700e-03, -1.62300e-03, -8.24300e-04,  3.97700e-05,  8.68600e-05, -6.20500e-06, -7.58800e-06],
                           [ 4.57700e-03,  3.72500e-03, -1.46900e-03, -3.64700e-04, -7.64100e-06,  2.52900e-05,  1.61400e-05, -4.60000e-06]])

# Reaction 4
chebyshev_reaction('gQOOHb (+ M) <=> gRO2 (+ M)',
                   Tmin=180.0, Tmax=1500.0,
                   Pmin=(0.01, 'atm'), Pmax=(98.692, 'atm'),
                   coeffs=[[ 2.15200e+00,  6.56200e-01, -2.89900e-02, -4.57000e-03, -8.55700e-04, -2.60100e-04,  1.39600e-04,  2.29400e-05],
                           [ 2.53400e+00,  1.13700e+00, -3.66100e-02, -1.07900e-02, -1.46300e-03, -3.14100e-04,  1.85000e-04,  4.76400e-05],
                           [-7.46200e-02,  7.26400e-01,  6.53500e-03, -1.25800e-02, -1.16500e-03,  1.08200e-04,  1.13500e-05,  4.16600e-05],
                           [-6.64100e-01,  3.22500e-01,  3.36100e-02, -9.95300e-03, -1.32800e-03,  3.49200e-04, -5.84000e-05,  1.78900e-05],
                           [-4.50100e-01,  8.52700e-02,  3.07700e-02, -3.87700e-03, -1.57100e-03,  2.11400e-04,  3.47000e-06, -6.18000e-06],
                           [-1.76800e-01,  1.05900e-02,  1.39200e-02,  7.62900e-04, -1.24700e-03, -1.07100e-04,  6.65400e-05, -8.05900e-06],
                           [-4.87200e-02,  8.77400e-03,  2.16600e-03,  1.60000e-03, -4.61300e-04, -2.68300e-04,  3.75900e-05,  5.28800e-06],
                           [-1.58100e-02,  1.25800e-02, -6.50500e-04,  4.24900e-04,  1.56600e-04, -1.74700e-04, -3.67600e-05,  9.08200e-06],
                           [-7.18500e-03,  7.93400e-03, -3.72200e-04, -4.02000e-04,  3.14900e-04,  6.99600e-07, -6.80000e-05, -2.90100e-06],
                           [ 2.48300e-05,  3.31100e-03, -6.97700e-04, -4.30900e-04,  2.17400e-04,  8.55700e-05, -4.22300e-05, -1.44200e-05]])

# Reaction 5
chebyshev_reaction('O2 + gR (+ M) <=> gRO2 (+ M)',
                   Tmin=180.0, Tmax=1500.0,
                   Pmin=(0.01, 'atm'), Pmax=(98.692, 'atm'),
                   coeffs=[[ 1.44000e+01,  9.80300e-01, -1.03400e-01, -6.18100e-05,  8.05800e-04,  1.41300e-05, -3.15700e-05, -4.64400e-06],
                           [-2.27000e+00,  8.04400e-01,  3.87400e-02, -1.16300e-02, -1.80400e-03,  4.88600e-05,  5.88900e-05,  5.73800e-06],
                           [-9.21400e-01,  1.74700e-01,  3.98700e-02,  4.38700e-03, -4.76300e-04, -2.92200e-04, -4.19000e-05,  3.87600e-06],
                           [-4.03300e-01,  4.28300e-02,  1.17300e-02,  2.55000e-03,  4.09600e-04,  3.80500e-05, -1.39200e-05, -8.52900e-06],
                           [-1.96000e-01,  1.42600e-02,  5.37900e-03,  8.02800e-04,  6.07300e-05,  2.27100e-05,  9.29400e-06,  1.48000e-06],
                           [-8.49000e-02, -4.76600e-03,  2.49400e-03,  7.43500e-04,  6.94800e-05, -9.63900e-06, -4.86400e-06,  4.69500e-07],
                           [-2.18000e-02, -1.25200e-02, -4.36200e-05,  4.31600e-04,  1.07300e-04,  6.29700e-06, -1.86900e-06, -5.35900e-07],
                           [ 7.17600e-03, -1.10900e-02, -1.16200e-03,  1.22600e-04,  5.35800e-05,  8.74500e-06,  1.36500e-06, -1.30100e-07],
                           [ 1.55100e-02, -6.96100e-03, -1.19000e-03, -5.31700e-05,  2.31700e-05,  3.57600e-06,  6.63100e-07, -1.02300e-07],
                           [ 1.42100e-02, -3.59400e-03, -9.13000e-04, -6.72900e-05,  2.82600e-06,  3.46900e-06, -3.36000e-07,  2.45400e-08]])
#  gRO2(+M) <=> gQOOH[O](+M)                           1.000e+00 0.000     0.000
#      TCHEB/ 180.000   1500.000 /
#      PCHEB/ 0.010     98.692   /
#      CHEB/ 10 8/
#      CHEB/ -3.423e+00   1.707e+00    -2.239e-01   -4.918e-02   6.315e-03   /
#      CHEB/ 6.580e-03    7.846e-04    -6.849e-04   7.719e+00    6.334e-01   /
#      CHEB/ 1.155e-01    6.308e-03    -1.251e-02   -3.965e-03   1.121e-03   /
#      CHEB/ 8.547e-04    -1.053e+00   3.350e-01    6.295e-02    1.770e-02   /
#      CHEB/ -4.623e-04   -3.221e-03   -9.621e-04   2.842e-04    -5.834e-01  /
#      CHEB/ 1.143e-01    2.213e-02    1.549e-02    5.426e-03    -6.611e-04  /
#      CHEB/ -1.337e-03   -3.850e-04   -3.515e-01   6.803e-02    1.533e-02   /
#      CHEB/ 2.663e-03    1.228e-03    7.205e-04    5.435e-06    -2.049e-04  /
#      CHEB/ -1.800e-01   2.838e-02    9.401e-03    -4.563e-04   -8.657e-04  /
#      CHEB/ 3.182e-04    3.866e-04    5.249e-05    -5.934e-02   -5.743e-03  /
#      CHEB/ -2.701e-05   9.067e-04    3.287e-04    -6.897e-05   -4.385e-05  /
#      CHEB/ 3.331e-05    -3.095e-02   7.909e-03    5.943e-04    -1.078e-03  /
#      CHEB/ -4.128e-04   2.324e-06    7.188e-05    4.051e-05    -1.194e-02  /
#      CHEB/ 6.183e-03    9.932e-04    -6.797e-04   -4.112e-04   9.036e-06   /
#      CHEB/ 4.205e-05    -1.043e-06   1.065e-02    -9.318e-03   -1.564e-03  /
#      CHEB/ 1.412e-03    5.689e-04    -1.682e-04   -1.522e-04   -1.988e-05  /

# Reaction 6
chebyshev_reaction('gQOOHa (+ M) <=> gQOOH[O] (+ M)',
                   Tmin=180.0, Tmax=1500.0,
                   Pmin=(0.01, 'atm'), Pmax=(98.692, 'atm'),
                   coeffs=[[-4.87800e+00,  6.07700e-01, -4.02900e-01, -1.99500e-02,  3.90100e-03,  4.04000e-03,  1.98600e-03, -3.95100e-04],
                           [ 5.85500e+00,  1.42900e+00,  2.00300e-02, -1.02500e-02,  1.49800e-02, -6.09200e-03, -3.22600e-03,  1.16000e-03],
                           [-1.20600e+00,  6.18100e-01,  1.02100e-01, -1.18700e-02, -4.66400e-05,  3.18800e-03, -2.17900e-03, -6.12100e-04],
                           [-6.52800e-01,  1.92300e-01,  4.13100e-02,  7.97600e-04, -2.30800e-03,  3.59400e-03,  6.54300e-04, -1.21900e-03],
                           [-2.49500e-01,  8.56600e-02,  1.35700e-02, -2.74100e-03, -3.57200e-03,  7.85900e-04,  1.61900e-03, -7.02000e-05],
                           [-8.55700e-02,  4.73900e-02,  4.51700e-03, -5.17100e-03, -2.65800e-03,  2.49400e-05,  8.79700e-04,  3.01400e-04],
                           [-2.23000e-02,  1.46700e-02, -3.33800e-03, -3.10300e-03, -3.80900e-04,  3.25200e-04,  1.42400e-04,  2.37100e-05],
                           [-2.49200e-02,  1.85900e-02,  4.05400e-04, -2.27500e-03, -1.07000e-03,  6.23300e-06,  2.07000e-04,  7.71900e-05],
                           [-1.26200e-02,  1.12700e-02, -3.94400e-04, -1.05600e-03, -5.30100e-04, -6.26900e-05,  9.53600e-05,  4.88200e-05],
                           [ 8.04900e-03, -5.98600e-03, -4.07900e-03,  4.04600e-05,  8.18600e-04,  2.04800e-04, -1.35700e-04, -8.75600e-05]])

# Reaction 7
chebyshev_reaction('gQOOHg (+ M) <=> gQOOH[O] (+ M)',
                   Tmin=180.0, Tmax=1500.0,
                   Pmin=(0.01, 'atm'), Pmax=(98.692, 'atm'),
                   coeffs=[[-6.72500e-01,  2.83100e-01, -2.41300e-01, -4.22200e-02, -4.09200e-03,  6.69200e-03,  2.08700e-03, -4.40100e-04],
                           [ 2.46100e+00,  1.23700e+00,  3.81400e-02,  4.01600e-02, -4.94500e-03, -6.19000e-03, -1.10600e-03,  4.08700e-04],
                           [-1.17800e+00,  6.55800e-01,  4.41000e-02,  1.69800e-02,  2.80100e-03, -3.81200e-03, -7.89700e-04,  1.51500e-04],
                           [-6.27200e-01,  2.15500e-01,  7.75500e-03,  1.70200e-03,  6.79400e-03,  6.47500e-04, -5.67300e-04, -3.46400e-04],
                           [-2.12000e-01,  9.52100e-02,  2.45900e-04, -7.20600e-03,  1.54000e-03,  9.75700e-04,  1.36400e-04,  1.08300e-04],
                           [-7.07800e-02,  5.85700e-02, -1.72100e-03, -8.24900e-03, -2.14800e-04,  5.96600e-04,  9.24700e-05,  1.76500e-04],
                           [-1.83700e-02,  2.07900e-02, -6.42100e-03, -4.94300e-03,  1.01800e-03,  7.19700e-04, -2.19400e-04, -8.64000e-05],
                           [-2.17300e-02,  2.02500e-02, -1.17600e-03, -2.86800e-03, -3.91200e-04,  1.72600e-04,  9.21800e-06,  2.79200e-05],
                           [-1.05200e-02,  1.17400e-02, -1.07900e-03, -1.16900e-03, -3.01500e-04, -1.05300e-06,  1.99700e-05,  2.19500e-05],
                           [ 8.81600e-03, -4.68000e-03, -4.75600e-03,  5.76300e-05,  8.68400e-04,  2.35700e-04, -1.17300e-04, -1.07400e-04]])

# Reaction 8
chebyshev_reaction('gQOOHb (+ M) <=> gQOOH[O] (+ M)',
                   Tmin=180.0, Tmax=1500.0,
                   Pmin=(0.01, 'atm'), Pmax=(98.692, 'atm'),
                   coeffs=[[-5.79700e+00,  4.77400e-01, -2.44300e-01, -4.70800e-02,  1.20100e-04,  5.44900e-03,  1.66200e-03, -4.59800e-04],
                           [ 5.68100e+00,  1.63100e+00,  6.65500e-02,  2.26200e-02, -6.82600e-03, -7.12100e-03, -7.15100e-04,  8.13300e-04],
                           [-1.07400e+00,  8.03500e-01,  8.40300e-02,  5.35000e-03,  1.14700e-03, -3.03700e-03, -1.26700e-03,  2.18000e-04],
                           [-7.06600e-01,  2.34700e-01,  5.43600e-02, -3.49400e-03,  1.50400e-03,  1.31700e-03, -4.28900e-04, -3.83500e-04],
                           [-2.86000e-01,  8.02500e-02,  2.88600e-02, -4.58000e-03, -4.01800e-03,  9.65700e-04,  7.69100e-04,  9.22600e-06],
                           [-9.49400e-02,  4.62500e-02,  1.08200e-02, -2.28200e-03, -3.24100e-03, -1.07700e-04,  5.28300e-04,  1.37600e-04],
                           [-2.90100e-02,  1.50000e-02, -4.32700e-04, -4.94100e-04,  1.95300e-04, -3.47900e-06, -1.11400e-04, -6.88900e-05],
                           [-2.99800e-02,  1.74900e-02,  9.46000e-04, -9.60700e-04, -2.21600e-04, -6.88000e-05,  8.98000e-06,  1.60100e-05],
                           [-1.46600e-02,  1.08400e-02, -1.01800e-03, -5.79400e-04,  1.03900e-04,  2.47600e-06, -2.76100e-05,  2.50500e-06],
                           [ 6.81700e-03, -4.70400e-03, -4.88100e-03,  2.82500e-04,  1.19500e-03,  2.39400e-04, -1.93600e-04, -1.09000e-04]])

# Reaction 9
chebyshev_reaction('O2 + gR (+ M) <=> gQOOH[O] (+ M)',
                   Tmin=180.0, Tmax=1500.0,
                   Pmin=(0.01, 'atm'), Pmax=(98.692, 'atm'),
                   coeffs=[[ 8.89400e+00,  8.25000e-01, -2.58000e-01, -5.23900e-02, -4.26500e-03,  4.23000e-03,  2.12800e-03,  8.38400e-05],
                           [-2.11100e+00,  9.66300e-01,  1.56200e-01,  2.56600e-02, -8.93300e-05, -4.45200e-03, -2.05200e-03, -1.02600e-04],
                           [-1.08600e+00,  2.25200e-01,  9.78200e-02,  2.14300e-02, -9.29000e-04, -2.55900e-03, -6.44300e-04,  2.09300e-04],
                           [-2.88800e-01,  4.86800e-03,  4.70900e-03,  4.17600e-03,  4.11100e-03,  1.84000e-03,  3.14000e-05, -3.84400e-04],
                           [-7.32900e-02,  8.82700e-03,  6.63000e-04, -1.41800e-03, -2.59600e-05,  4.81300e-04,  2.94200e-04,  6.91500e-05],
                           [-7.68100e-03, -2.29500e-03, -2.74400e-04, -1.27900e-03, -8.67200e-04, -1.34100e-04,  1.78700e-04,  1.42100e-04],
                           [ 2.80600e-02, -2.53600e-02, -6.90300e-03, -2.74500e-04,  7.40900e-04,  2.80800e-04, -5.78000e-05, -8.44800e-05],
                           [ 8.67100e-03, -9.11100e-03, -6.11800e-04,  1.23300e-04, -3.46700e-04, -2.17100e-04, -8.57300e-06,  4.28200e-05],
                           [ 6.48400e-03, -4.59500e-03,  8.55400e-05,  2.52200e-04, -1.99600e-04, -1.66600e-04, -2.33000e-05,  2.49700e-05],
                           [ 1.74400e-02, -1.25300e-02, -4.32000e-03, -2.83600e-05,  7.78600e-04,  3.52400e-04, -2.73900e-05, -9.74200e-05]])
#  gRO2(+M) <=> gQOOHa(+M)                             1.000e+00 0.000     0.000
#      TCHEB/ 180.000   1500.000 /
#      PCHEB/ 0.010     98.692   /
#      CHEB/ 10 8/
#      CHEB/ -1.821e+00   7.194e-01    -1.366e-01   1.094e-02    5.986e-03   /
#      CHEB/ -1.448e-03   -4.075e-04   1.448e-04    6.785e+00    1.118e+00   /
#      CHEB/ -1.544e-01   -6.378e-03   1.203e-02    -5.241e-04   -1.260e-03  /
#      CHEB/ 1.248e-04    -2.090e-01   5.455e-01    1.765e-02    -3.424e-02  /
#      CHEB/ 5.816e-03    3.607e-03    -1.288e-03   -3.449e-04   -6.483e-01  /
#      CHEB/ 2.019e-01    5.465e-02    -2.015e-02   -2.985e-03   3.882e-03   /
#      CHEB/ 5.252e-05    -6.555e-04   -3.282e-01   8.752e-02    1.738e-02   /
#      CHEB/ -6.982e-05   -4.545e-03   1.126e-03    1.017e-03    -3.835e-04  /
#      CHEB/ -1.266e-01   4.062e-02    -1.164e-03   2.485e-03    -1.522e-03  /
#      CHEB/ -4.101e-04   7.038e-04    4.041e-05    -5.499e-02   1.311e-02   /
#      CHEB/ 3.548e-05    -1.067e-03   7.124e-05    -2.505e-04   1.588e-04   /
#      CHEB/ 1.471e-04    -2.166e-02   5.515e-03    5.674e-04    -1.627e-03  /
#      CHEB/ -1.913e-05   4.100e-05    1.610e-05    6.211e-05    -3.742e-03  /
#      CHEB/ 5.478e-03    -8.227e-04   -7.222e-04   -1.993e-04   5.767e-05   /
#      CHEB/ 3.149e-05    9.692e-06    2.610e-03    4.091e-03    -1.032e-03  /
#      CHEB/ -3.371e-04   -1.328e-04   3.344e-05    1.949e-05    2.824e-06   /
#  gQOOH[O](+M) <=> gQOOHa(+M)                         1.000e+00 0.000     0.000
#      TCHEB/ 180.000   1500.000 /
#      PCHEB/ 0.010     98.692   /
#      CHEB/ 10 8/
#      CHEB/ 3.025e+00    6.077e-01    -4.029e-01   -1.995e-02   3.901e-03   /
#      CHEB/ 4.040e-03    1.986e-03    -3.951e-04   2.683e-01    1.429e+00   /
#      CHEB/ 2.003e-02    -1.025e-02   1.498e-02    -6.092e-03   -3.226e-03  /
#      CHEB/ 1.160e-03    -1.217e+00   6.181e-01    1.021e-01    -1.187e-02  /
#      CHEB/ -4.664e-05   3.188e-03    -2.179e-03   -6.121e-04   -7.034e-01  /
#      CHEB/ 1.923e-01    4.131e-02    7.976e-04    -2.308e-03   3.594e-03   /
#      CHEB/ 6.543e-04    -1.219e-03   -2.746e-01   8.566e-02    1.357e-02   /
#      CHEB/ -2.741e-03   -3.572e-03   7.859e-04    1.619e-03    -7.020e-05  /
#      CHEB/ -9.483e-02   4.739e-02    4.517e-03    -5.171e-03   -2.658e-03  /
#      CHEB/ 2.494e-05    8.797e-04    3.014e-04    -2.561e-02   1.467e-02   /
#      CHEB/ -3.338e-03   -3.103e-03   -3.809e-04   3.252e-04    1.424e-04   /
#      CHEB/ 2.371e-05    -2.621e-02   1.859e-02    4.054e-04    -2.275e-03  /
#      CHEB/ -1.070e-03   6.233e-06    2.070e-04    7.719e-05    -1.308e-02  /
#      CHEB/ 1.127e-02    -3.944e-04   -1.056e-03   -5.301e-04   -6.269e-05  /