units(length='cm', time='s', quantity='mol', act_energy='kcal/mol')

ideal_gas(name='gas',
          elements="H D T C Ci O Oi N Ne Ar He Si S F Cl Br I X",
          species="""aOOHbalkene      OH               ibutanal
                     aR               performic_acid   disub_c4ether
                     aQOOHb           H                aadduct
                     trisub_epoxy     ibutenol         aQOOH[O]
                     ipropyl          aRO2             O2
                     formic_acid      propene          aQOOHg
                     ibut_peroxyacid  HO2              CH3""",
          reactions='all',
          initial_state=state(temperature=300.0, pressure=OneAtm))

#-------------------------------------------------------------------------------
# Element data
#-------------------------------------------------------------------------------

element(symbol='Ci', atomic_mass=13.003)
element(symbol='D', atomic_mass=2.014)
element(symbol='Oi', atomic_mass=18.0)
element(symbol='T', atomic_mass=3.016)
element(symbol='X', atomic_mass=195.083)
#-------------------------------------------------------------------------------
# Species data
#-------------------------------------------------------------------------------

species(name='aOOHbalkene',
        atoms='C:3 H:6 O:3',
        thermo=(NASA([10.00, 497.41],
                     [ 3.76691735E+00,  1.51417956E-02,  1.85499431E-04,
                      -4.61303214E-07,  3.27678941E-10, -3.00816770E+04,
                       1.09903968E+01]),
                NASA([497.41, 3000.00],
                     [ 6.20882781E+00,  4.08866173E-02, -2.89934946E-05,
                       9.60428979E-09, -1.19355432E-12, -3.08860064E+04,
                      -4.72842811E+00])))

species(name='OH',
        atoms='H:1 O:1',
        thermo=(NASA([10.00, 984.14],
                     [ 3.49686242E+00,  1.83973160E-04, -9.97634499E-07,
                       1.56942783E-09, -6.10128175E-13,  3.41673934E+03,
                       1.48093120E+00]),
                NASA([984.14, 3000.00],
                     [ 3.45221464E+00, -2.95124034E-04,  7.39418622E-07,
                      -2.89309866E-10,  3.53041498E-14,  3.45751599E+03,
                       1.85813897E+00])))

species(name='ibutanal',
        atoms='C:4 H:8 O:1',
        thermo=(NASA([10.00, 683.88],
                     [ 3.57157346E+00,  3.36936906E-02, -1.78475021E-05,
                       1.31946716E-08, -7.58008388E-12, -2.63831642E+04,
                       1.05595084E+01]),
                NASA([683.88, 3000.00],
                     [ 1.29043622E+00,  4.14804229E-02, -2.27411206E-05,
                       6.08619500E-09, -6.38995128E-13, -2.59412450E+04,
                       2.16477430E+01])))

species(name='aR',
        atoms='C:4 H:9 O:1',
        thermo=(NASA([10.00, 455.22],
                     [ 3.59625500E+00,  3.38947981E-02,  7.37257079E-06,
                      -3.99275335E-08,  2.49019944E-11, -1.44245354E+04,
                       1.18269265E+01]),
                NASA([455.22, 3000.00],
                     [ 2.49586309E+00,  4.35639890E-02, -2.44887770E-05,
                       6.73363769E-09, -7.23862433E-13, -1.43243523E+04,
                       1.62696907E+01])))

species(name='performic_acid',
        atoms='C:1 H:2 O:3',
        thermo=(NASA([10.00, 590.95],
                     [ 3.92633851E+00,  4.24517168E-03,  6.71106764E-05,
                      -1.36545385E-07,  8.03337864E-11, -3.63028176E+04,
                       8.06485813E+00]),
                NASA([590.95, 3000.00],
                     [ 4.39992934E+00,  1.85411415E-02, -1.36005501E-05,
                       4.62292431E-09, -5.88463603E-13, -3.66643888E+04,
                       3.44353230E+00])))

species(name='disub_c4ether',
        atoms='C:4 H:8 O:2',
        thermo=(NASA([10.00, 413.50],
                     [ 3.78241323E+00,  1.89501763E-02,  8.65302396E-05,
                      -1.80580575E-07,  1.13656264E-10, -3.84108935E+04,
                       1.09982450E+01]),
                NASA([413.50, 3000.00],
                     [ 4.29420885E-01,  5.13851903E-02, -3.11292293E-05,
                       9.11498284E-09, -1.03192718E-12, -3.81335991E+04,
                       2.42134976E+01])))

species(name='aQOOHb',
        atoms='C:4 H:9 O:3',
        thermo=(NASA([10.00, 412.78],
                     [ 3.15498836E+00,  8.55068303E-02, -2.35307993E-04,
                       4.71983261E-07, -3.62709267E-10, -2.66162576E+04,
                       1.52522123E+01]),
                NASA([412.78, 3000.00],
                     [ 4.18099845E+00,  5.26168288E-02, -3.23998410E-05,
                       9.59389339E-09, -1.09464519E-12, -2.65054627E+04,
                       1.35782328E+01])))

species(name='H',
        atoms='H:1',
        thermo=(NASA([10.00, 794.01],
                     [ 2.50000000E+00,  1.99051163E-15, -1.19089508E-17,
                       2.10805655E-20, -1.11017699E-23,  2.54725594E+04,
                      -4.61279342E-01]),
                NASA([794.01, 3000.00],
                     [ 2.50000000E+00,  1.52667235E-14, -1.58445285E-17,
                       6.63088600E-21, -9.62111674E-25,  2.54725594E+04,
                      -4.61279342E-01])))

species(name='aadduct',
        atoms='C:4 H:9 O:3',
        thermo=(NASA([10.00, 449.84],
                     [ 3.06901904E+00,  9.20724491E-02, -2.68085092E-04,
                       5.15249897E-07, -3.68046586E-10, -2.95673828E+04,
                       1.46591735E+01]),
                NASA([449.84, 3000.00],
                     [ 4.11210745E+00,  5.16955724E-02, -2.97401041E-05,
                       8.32758939E-09, -9.08861448E-13, -2.93465418E+04,
                       1.39578825E+01])))

species(name='trisub_epoxy',
        atoms='C:4 H:8 O:2',
        thermo=(NASA([10.00, 209.19],
                     [ 3.75295042E+00,  2.37546930E-02,  1.26610110E-04,
                      -4.78364365E-07,  5.79468168E-10, -4.08690909E+04,
                       1.12739684E+01]),
                NASA([209.19, 3000.00],
                     [ 2.64185254E+00,  4.50006531E-02, -2.57361066E-05,
                       7.15266054E-09, -7.72980731E-13, -4.08226053E+04,
                       1.48960343E+01])))

species(name='ibutenol',
        atoms='C:4 H:8 O:1',
        thermo=(NASA([10.00, 135.97],
                     [ 3.95714996E+00,  5.72646980E-03,  4.63611760E-04,
                      -3.04137514E-06,  6.85019471E-09, -2.54948015E+04,
                       8.21931848E+00]),
                NASA([135.97, 3000.00],
                     [ 3.32467612E+00,  3.69033556E-02, -1.89960416E-05,
                       4.73417677E-09, -4.59705291E-13, -2.54892229E+04,
                       9.58133237E+00])))

species(name='aQOOH[O]',
        atoms='C:4 H:9 O:3',
        thermo=(NASA([10.00, 488.36],
                     [ 3.54559533E+00,  3.89536133E-02,  8.47689703E-05,
                      -2.45147486E-07,  1.76157259E-10, -2.47830211E+04,
                       1.34685910E+01]),
                NASA([488.36, 3000.00],
                     [ 3.94214913E+00,  5.71928314E-02, -3.72516212E-05,
                       1.15209013E-08, -1.35808341E-12, -2.50779821E+04,
                       9.21628964E+00])))

species(name='ipropyl',
        atoms='C:3 H:7',
        thermo=(NASA([10.00, 421.76],
                     [ 3.73943775E+00,  3.10070157E-02, -1.51196908E-04,
                       4.35367329E-07, -3.85565052E-10,  9.49213457E+03,
                       7.79448918E+00]),
                NASA([421.76, 3000.00],
                     [-4.74526725E-01,  3.20862468E-02, -1.67340747E-05,
                       4.21365136E-09, -4.13155573E-13,  1.01934458E+04,
                       2.85865912E+01])))

species(name='aRO2',
        atoms='C:4 H:9 O:3',
        thermo=(NASA([10.00, 670.36],
                     [ 3.45405325E+00,  4.74751311E-02,  9.77507759E-06,
                      -6.31019603E-08,  3.75500067E-11, -3.17962612E+04,
                       1.39284976E+01]),
                NASA([670.36, 3000.00],
                     [ 5.04137652E+00,  5.19952978E-02, -3.16472789E-05,
                       9.22798587E-09, -1.03598915E-12, -3.23234538E+04,
                       4.56056770E+00])))

species(name='O2',
        atoms='O:2',
        thermo=(NASA([10.00, 605.96],
                     [ 3.50743498E+00, -4.43860349E-04,  1.45938058E-06,
                       1.61509333E-09, -2.32050052E-12, -9.24756224E+02,
                       4.72183634E+00]),
                NASA([605.96, 3000.00],
                     [ 2.87462882E+00,  2.17840991E-03, -1.18262921E-06,
                       2.86910493E-10, -2.53297146E-14, -8.19517838E+02,
                       7.69331810E+00])))

species(name='formic_acid',
        atoms='C:1 H:2 O:2',
        thermo=(NASA([10.00, 741.38],
                     [ 4.06855785E+00, -4.74562133E-03,  4.71797900E-05,
                      -6.07490052E-08,  2.51286794E-11, -4.66880837E+04,
                       6.53681035E+00]),
                NASA([741.38, 3000.00],
                     [ 1.13645847E+00,  1.74953124E-02, -1.08112403E-05,
                       3.08075326E-09, -3.34892658E-13, -4.64297918E+04,
                       1.86149484E+01])))

species(name='propene',
        atoms='C:3 H:6',
        thermo=(NASA([10.00, 519.53],
                     [ 3.98723879E+00,  4.72040503E-04,  6.51776229E-05,
                      -9.89891002E-08,  4.91141123E-11,  3.71358758E+03,
                       6.98071210E+00]),
                NASA([519.53, 3000.00],
                     [ 3.79893331E-01,  2.82457690E-02, -1.50108430E-05,
                       3.90894069E-09, -4.00521928E-13,  4.08841492E+03,
                       2.20218922E+01])))

species(name='aQOOHg',
        atoms='C:4 H:9 O:3',
        thermo=(NASA([10.00, 455.48],
                     [ 3.62522127E+00,  2.83222320E-02,  2.08527447E-04,
                      -5.67427418E-07,  4.35169138E-10, -2.43143954E+04,
                       1.26617758E+01]),
                NASA([455.48, 3000.00],
                     [ 5.13914202E+00,  5.96270859E-02, -4.14435328E-05,
                       1.34202375E-08, -1.63474553E-12, -2.49149518E+04,
                       1.46991116E+00])))

species(name='ibut_peroxyacid',
        atoms='C:4 H:8 O:3',
        thermo=(NASA([10.00, 1386.21],
                     [ 3.50995385E+00,  4.78670384E-02, -2.40781384E-05,
                       3.71046938E-09,  3.85442115E-13, -4.74294076E+04,
                       1.22017268E+01]),
                NASA([1386.21, 3000.00],
                     [ 1.24543146E+01,  3.02396862E-02, -1.38577031E-05,
                       3.05328904E-09, -2.63982457E-13, -5.06952909E+04,
                      -3.67061828E+01])))

species(name='HO2',
        atoms='H:1 O:2',
        thermo=(NASA([10.00, 891.11],
                     [ 4.02887004E+00, -1.75769289E-03,  1.08726004E-05,
                      -1.13812972E-08,  3.90113097E-12,  4.95165001E+02,
                       4.69302008E+00]),
                NASA([891.11, 3000.00],
                     [ 3.06571044E+00,  4.28505005E-03, -2.19325920E-06,
                       5.58882699E-10, -5.61246669E-14,  5.98557610E+02,
                       8.84564156E+00])))

species(name='CH3',
        atoms='C:1 H:3',
        thermo=(NASA([10.00, 616.77],
                     [ 3.98929952E+00,  5.45150461E-04,  9.01320092E-06,
                      -1.08320497E-08,  4.38985879E-12,  1.65859883E+04,
                       2.22446886E-01]),
                NASA([616.77, 3000.00],
                     [ 3.35928237E+00,  4.63117126E-03, -9.24365433E-07,
                      -9.02514624E-11,  3.56905106E-14,  1.66637014E+04,
                       2.95743732E+00])))

#-------------------------------------------------------------------------------
# Reaction data
#-------------------------------------------------------------------------------

# Reaction 1
chebyshev_reaction('aQOOH[O] (+ M) <=> aQOOHb (+ M)',
                   Tmin=180.0, Tmax=1500.0,
                   Pmin=(0.01, 'atm'), Pmax=(98.692, 'atm'),
                   coeffs=[[-3.49300e-02,  2.73600e+00, -5.31800e-01, -1.12500e-01,  4.44100e-03,  8.31400e-03,  8.72900e-04, -5.23400e-04],
                           [ 3.97700e+00,  1.17100e+00,  3.77400e-01,  1.05200e-02, -3.71400e-02, -9.70300e-03,  1.90300e-03,  1.25300e-03],
                           [ 3.28100e-01,  1.00200e-02,  8.92300e-02,  5.25300e-02,  5.44300e-03, -7.16400e-03, -2.93700e-03,  3.57100e-04],
                           [ 5.94500e-03, -2.58200e-02, -1.84300e-03,  1.20100e-02,  7.70400e-03,  4.79600e-04, -1.54900e-03, -6.39100e-04],
                           [-5.37200e-02,  5.16300e-03, -6.04300e-03, -1.11000e-03,  3.27600e-03,  2.09200e-03, -6.19400e-05, -5.97400e-04],
                           [-2.61200e-02, -9.19900e-03, -2.28400e-03, -2.25800e-04,  8.40000e-04,  1.14700e-03,  4.76800e-04, -1.10200e-04],
                           [ 1.13600e-03, -1.79600e-03,  5.59900e-05, -3.66600e-04, -3.07900e-04,  6.48600e-05,  3.55900e-04,  1.98100e-04],
                           [ 8.47900e-04,  3.32700e-03,  4.53800e-04, -1.38800e-04, -5.74600e-04, -1.68700e-04,  6.46300e-05,  1.38200e-04],
                           [-7.74000e-03,  3.30700e-03,  8.10400e-04, -4.16300e-04,  4.85500e-05, -1.18100e-04, -5.00700e-05,  2.89900e-07],
                           [-9.25200e-04, -9.14500e-03, -2.92600e-03,  3.33800e-04,  2.97700e-04,  2.14600e-04, -4.32800e-05, -5.71300e-05]])

# Reaction 2
chebyshev_reaction('aQOOHg (+ M) <=> aQOOHb (+ M)',
                   Tmin=180.0, Tmax=1500.0,
                   Pmin=(0.01, 'atm'), Pmax=(98.692, 'atm'),
                   coeffs=[[-6.64200e-01,  1.81400e+00, -6.21400e-01, -6.78000e-02,  7.46500e-03,  6.66200e-03,  1.10700e-03, -6.47800e-04],
                           [ 3.86400e+00,  1.54800e+00,  2.05700e-01, -5.80400e-02, -2.47700e-02, -7.35200e-03,  9.80200e-04,  1.80400e-03],
                           [ 3.89400e-01,  2.84500e-01,  1.58900e-01,  1.26700e-02, -6.76200e-03, -2.49800e-03, -3.00600e-03, -4.53100e-04],
                           [-1.75600e-01,  8.48400e-02,  7.04700e-02,  1.38300e-02, -5.25100e-03,  9.23700e-04,  6.54400e-04, -1.11300e-03],
                           [-1.16600e-01,  1.80000e-02,  1.45400e-02,  1.21400e-02, -6.64200e-04, -1.34400e-03,  1.38500e-03,  2.19200e-04],
                           [-5.52300e-02, -1.19800e-02,  3.90300e-03,  5.64600e-03,  1.67400e-03, -1.31900e-03, -8.44900e-05,  6.75200e-04],
                           [-2.20300e-02, -4.09400e-04,  1.52000e-03,  3.09800e-03,  1.15500e-03, -7.16200e-04, -6.07800e-04,  2.46100e-04],
                           [-6.06400e-03,  1.57400e-04,  1.37100e-03,  1.24700e-03,  8.39200e-04, -9.50000e-05, -4.59700e-04, -9.69500e-05],
                           [-3.70600e-03, -5.07900e-03, -2.36600e-03,  4.48100e-04,  9.09800e-04,  3.54500e-04, -1.61400e-04, -2.01400e-04],
                           [-3.11000e-03, -5.81200e-03, -2.52900e-03, -3.79000e-04,  5.99100e-04,  4.39800e-04,  2.24600e-05, -1.31100e-04]])

# Reaction 3
chebyshev_reaction('aRO2 (+ M) <=> aQOOHb (+ M)',
                   Tmin=180.0, Tmax=1500.0,
                   Pmin=(0.01, 'atm'), Pmax=(98.692, 'atm'),
                   coeffs=[[-4.18800e+00,  2.25500e+00, -2.24000e-01, -1.11400e-01,  1.14600e-02,  9.42000e-03, -1.86300e-03, -4.92600e-04],
                           [ 8.04600e+00,  1.74600e+00, -5.76500e-02,  4.00700e-03, -2.82500e-02, -1.07400e-02,  5.02500e-03,  1.56200e-03],
                           [ 5.30800e-01, -3.07600e-02,  1.46500e-01,  5.67200e-02, -2.28700e-02, -5.20400e-03, -6.12600e-04, -4.61500e-04],
                           [-9.97400e-02, -1.53000e-01,  8.58000e-02,  1.55800e-03,  1.17800e-02,  8.51700e-05, -4.64500e-03,  1.35200e-04],
                           [-1.33700e-01,  3.37500e-02, -1.66700e-02, -2.76300e-03,  1.42800e-02, -1.69500e-03, -4.09200e-04,  3.25000e-05],
                           [-3.84500e-02,  4.26500e-02, -3.13500e-02,  9.53300e-03, -1.54200e-03,  1.02600e-03,  2.04600e-03, -1.09300e-03],
                           [ 3.21100e-03, -1.09700e-02,  1.69500e-03,  2.77400e-03, -5.17600e-03,  2.93600e-03, -1.30400e-04, -1.28200e-04],
                           [ 1.26100e-03, -1.85000e-02,  1.37200e-02, -5.81200e-03,  9.21600e-04,  1.93900e-04, -8.13800e-04,  7.81700e-04],
                           [-3.19400e-03,  5.24000e-04,  1.29800e-04, -2.58800e-03,  2.80100e-03, -1.67900e-03,  4.20500e-04,  1.25200e-04],
                           [-9.55300e-04,  5.91200e-03, -7.27400e-03,  2.75600e-03, -3.24300e-04, -3.32900e-04,  5.98700e-04, -4.73000e-04]])

# Reaction 4
chebyshev_reaction('aadduct (+ M) <=> aQOOHb (+ M)',
                   Tmin=180.0, Tmax=1500.0,
                   Pmin=(0.01, 'atm'), Pmax=(98.692, 'atm'),
                   coeffs=[[-4.62700e+00,  1.66700e+00, -2.23100e-01, -8.70200e-02,  1.42100e-03,  7.61400e-03,  3.20000e-04, -8.01500e-04],
                           [ 4.15000e+00,  2.20600e+00,  4.93400e-02, -2.82900e-02, -2.14900e-02, -6.15700e-03,  1.95600e-03,  1.42400e-03],
                           [ 6.26700e-01,  3.19500e-01,  3.09900e-04,  3.66400e-02, -6.65500e-03, -7.50200e-03, -1.07800e-03,  6.07000e-04],
                           [ 2.39100e-01, -2.51400e-01,  5.05400e-02,  4.55300e-02,  2.81700e-04, -3.84400e-03, -1.73200e-03, -4.14600e-04],
                           [-4.14600e-02, -1.64200e-01,  5.89300e-02,  5.77400e-03,  2.42300e-03,  2.34000e-03, -1.00700e-03, -6.52100e-04],
                           [-7.63200e-02,  2.99700e-02,  1.48400e-02, -2.08200e-02,  5.14400e-03,  3.41600e-03, -8.45600e-05, -3.76600e-04],
                           [-2.63500e-02,  7.85300e-02, -2.44500e-02, -9.51100e-03,  5.22900e-03,  9.02900e-05,  1.00800e-04,  2.27900e-04],
                           [ 4.32800e-03,  2.38900e-02, -2.47400e-02,  1.02600e-02,  8.33100e-05, -2.12000e-03,  5.68800e-04,  2.83500e-04],
                           [ 7.35500e-03, -2.33900e-02, -2.67300e-03,  1.12500e-02, -4.52300e-03, -4.99700e-04,  7.22400e-04, -1.32600e-04],
                           [ 4.69800e-03, -2.46600e-02,  1.25300e-02, -1.31400e-03, -3.14200e-03,  1.73800e-03, -1.01300e-05, -2.81700e-04]])

# Reaction 5
chebyshev_reaction('O2 + aR (+ M) <=> aQOOHb (+ M)',
                   Tmin=180.0, Tmax=1500.0,
                   Pmin=(0.01, 'atm'), Pmax=(98.692, 'atm'),
                   coeffs=[[ 3.55700e+00,  1.39400e+00, -3.34300e-01, -1.14300e-01, -1.38800e-02,  7.51100e-03,  3.90700e-03,  1.22500e-04],
                           [ 5.45200e-01,  4.16100e-01,  2.01100e-01,  4.24800e-02, -1.35600e-02, -1.29000e-02, -2.75700e-03,  1.12200e-03],
                           [ 4.13200e-01,  9.50300e-02,  6.28000e-02,  2.87400e-02,  6.29700e-03, -2.27500e-03, -2.61200e-03, -8.69500e-04],
                           [ 1.13400e-01,  1.96300e-02,  1.61000e-02,  1.05200e-02,  4.85800e-03,  1.05800e-03, -4.61600e-04, -5.44000e-04],
                           [ 8.01400e-03, -1.24100e-02, -4.86000e-03,  7.38900e-04,  2.38500e-03,  1.61900e-03,  4.85800e-04, -9.97800e-05],
                           [-1.03000e-02, -9.15100e-03, -4.93100e-03, -1.30600e-03,  4.37500e-04,  7.09600e-04,  4.04500e-04,  1.00900e-04],
                           [-3.08200e-03,  2.27300e-03,  7.39200e-04, -2.41300e-04, -3.73800e-04, -1.26600e-04,  6.47900e-05,  9.55200e-05],
                           [-1.70200e-03,  4.28900e-03,  2.02100e-03,  2.98700e-04, -3.14000e-04, -2.53300e-04, -6.10500e-05,  3.41600e-05],
                           [-2.10800e-03, -1.72600e-03, -8.03000e-04, -1.35400e-04,  7.96800e-05,  5.32700e-05,  6.98100e-08, -1.31700e-05],
                           [-3.63300e-03, -3.17300e-03, -1.58100e-03, -3.44200e-04,  1.35600e-04,  1.42100e-04,  3.98700e-05, -1.31800e-05]])
#  aQOOHb(+M) <=> aQOOH[O](+M)                         1.000e+00 0.000     0.000
#      TCHEB/ 180.000   1500.000 /
#      PCHEB/ 0.010     98.692   /
#      CHEB/ 10 8/
#      CHEB/ -4.005e+00   2.736e+00    -5.318e-01   -1.125e-01   4.441e-03   /
#      CHEB/ 8.314e-03    8.729e-04    -5.234e-04   5.744e+00    1.171e+00   /
#      CHEB/ 3.774e-01    1.052e-02    -3.714e-02   -9.703e-03   1.903e-03   /
#      CHEB/ 1.253e-03    4.060e-01    1.002e-02    8.923e-02    5.253e-02   /
#      CHEB/ 5.443e-03    -7.164e-03   -2.937e-03   3.571e-04    5.195e-02   /
#      CHEB/ -2.582e-02   -1.843e-03   1.201e-02    7.704e-03    4.796e-04   /
#      CHEB/ -1.549e-03   -6.391e-04   -3.834e-02   5.163e-03    -6.043e-03  /
#      CHEB/ -1.110e-03   3.276e-03    2.092e-03    -6.194e-05   -5.974e-04  /
#      CHEB/ -2.135e-02   -9.199e-03   -2.284e-03   -2.258e-04   8.400e-04   /
#      CHEB/ 1.147e-03    4.768e-04    -1.102e-04   2.947e-03    -1.796e-03  /
#      CHEB/ 5.599e-05    -3.666e-04   -3.079e-04   6.486e-05    3.559e-04   /
#      CHEB/ 1.981e-04    1.564e-03    3.327e-03    4.538e-04    -1.388e-04  /
#      CHEB/ -5.746e-04   -1.687e-04   6.463e-05    1.382e-04    -7.545e-03  /
#      CHEB/ 3.307e-03    8.104e-04    -4.163e-04   4.855e-05    -1.181e-04  /
#      CHEB/ -5.007e-05   2.899e-07    -9.182e-04   -9.145e-03   -2.926e-03  /
#      CHEB/ 3.338e-04    2.977e-04    2.146e-04    -4.328e-05   -5.713e-05  /

# Reaction 6
chebyshev_reaction('aQOOHg (+ M) <=> aQOOH[O] (+ M)',
                   Tmin=180.0, Tmax=1500.0,
                   Pmin=(0.01, 'atm'), Pmax=(98.692, 'atm'),
                   coeffs=[[ 2.16800e+00,  1.92400e+00, -3.99500e-01, -5.50700e-02,  1.09200e-02,  7.68300e-03,  2.05700e-03, -4.83800e-04],
                           [ 2.16700e+00,  1.57600e+00,  4.60500e-02,  3.38600e-04, -1.51600e-02, -9.96700e-03, -7.88800e-04,  1.40800e-03],
                           [ 3.30500e-02,  2.15000e-01,  1.60500e-01, -1.17400e-02,  8.23000e-04,  4.19000e-03, -3.22500e-03, -9.19800e-04],
                           [-1.21000e-01,  3.35500e-02,  2.79100e-02, -1.32100e-02, -6.83000e-03,  1.13600e-03,  2.26200e-03, -5.06200e-04],
                           [-1.05400e-01,  2.85400e-02,  1.49500e-02,  9.29100e-03, -8.89700e-03, -1.58300e-03,  1.62400e-03,  2.78800e-05],
                           [-6.68700e-02,  3.21300e-03,  1.47800e-02,  8.55200e-03,  5.80800e-05, -1.93000e-03, -1.09900e-04,  6.90500e-04],
                           [-2.04500e-02,  2.52600e-03,  3.74200e-03,  4.52500e-03,  1.80400e-03, -1.53600e-03, -4.92900e-04,  3.85800e-04],
                           [-4.00000e-03, -3.42700e-05,  9.71500e-04,  1.44700e-03,  1.43500e-03, -4.08500e-04, -5.38700e-04, -3.53500e-05],
                           [-7.63900e-03, -2.46700e-03, -4.73800e-04,  4.97000e-04,  4.69900e-04,  6.03500e-04, -3.55800e-04, -1.58900e-04],
                           [-1.43800e-03, -7.07500e-03, -4.00800e-03,  8.77200e-04,  1.30900e-03,  2.78700e-04,  1.02900e-05, -2.05100e-04]])

# Reaction 7
chebyshev_reaction('aRO2 (+ M) <=> aQOOH[O] (+ M)',
                   Tmin=180.0, Tmax=1500.0,
                   Pmin=(0.01, 'atm'), Pmax=(98.692, 'atm'),
                   coeffs=[[-2.00800e+00,  2.94300e+00, -3.67600e-01, -6.69900e-02,  5.30100e-03,  7.54800e-03,  1.01100e-03, -9.51100e-04],
                           [ 7.88300e+00,  9.47200e-01,  2.43600e-01,  5.00300e-03, -2.17200e-02, -8.26700e-03,  3.38900e-04,  1.43000e-03],
                           [-7.36000e-01,  1.46300e-01,  9.78400e-02,  2.96900e-02, -1.60700e-04, -3.92200e-03, -1.48400e-03,  7.13300e-05],
                           [-1.97500e-01, -5.62300e-02,  1.03400e-02,  1.39000e-02,  4.34400e-03, -8.32700e-05, -5.36000e-04, -2.59800e-04],
                           [-2.15000e-02, -3.81300e-02, -1.65400e-02,  1.23300e-03,  3.59000e-03,  1.15400e-03, -2.95500e-04, -2.81900e-04],
                           [ 7.93500e-03, -9.75700e-03, -9.42700e-03, -1.67100e-03,  1.04000e-03,  7.85800e-04,  3.41800e-05, -1.58600e-04],
                           [-3.17100e-03,  4.99300e-03,  7.27400e-04, -1.95700e-03, -3.36000e-04,  1.54100e-04,  2.50600e-04,  4.27200e-05],
                           [-7.40300e-03,  6.30300e-03,  1.61000e-03, -8.10400e-05, -8.76400e-04,  2.77600e-05,  1.87300e-04,  6.83800e-05],
                           [-3.52000e-03,  1.63200e-03,  1.20800e-03, -7.50100e-04,  2.51300e-04, -8.51800e-05,  7.88500e-06,  5.05800e-05],
                           [ 8.85600e-03, -8.30400e-03, -2.38300e-03,  1.65700e-03,  1.82500e-05,  1.15800e-04, -1.21000e-04, -3.12900e-05]])

# Reaction 8
chebyshev_reaction('aadduct (+ M) <=> aQOOH[O] (+ M)',
                   Tmin=180.0, Tmax=1500.0,
                   Pmin=(0.01, 'atm'), Pmax=(98.692, 'atm'),
                   coeffs=[[-3.29700e+00,  2.84000e+00, -3.74800e-01, -6.14700e-02,  6.60400e-03,  7.41700e-03,  7.78200e-04, -1.06700e-03],
                           [ 5.14800e+00,  9.94000e-01,  2.33700e-01, -1.77600e-04, -2.11700e-02, -7.55900e-03,  5.51900e-04,  1.42100e-03],
                           [-7.33100e-01,  2.11400e-01,  1.08000e-01,  2.62200e-02, -1.90800e-03, -4.09500e-03, -1.32800e-03,  1.94500e-04],
                           [-1.18100e-01, -3.97000e-02,  2.16000e-02,  1.49500e-02,  3.40400e-03, -4.88900e-04, -5.42900e-04, -2.02600e-04],
                           [ 6.81000e-03, -4.97400e-02, -1.49900e-02,  3.56000e-03,  3.79100e-03,  1.01000e-03, -3.98200e-04, -2.84900e-04],
                           [ 2.32600e-02, -2.17400e-02, -1.24900e-02, -5.89400e-04,  1.49200e-03,  7.85800e-04, -2.09300e-05, -1.87400e-04],
                           [ 2.03700e-02,  1.75200e-04, -1.49300e-03, -2.29000e-03,  5.36100e-05,  1.98600e-04,  2.37700e-04,  2.04800e-05],
                           [ 1.00400e-02,  7.12300e-03,  5.46700e-04, -5.36000e-04, -7.98800e-04,  1.18300e-04,  2.11500e-04,  4.11200e-05],
                           [-6.62900e-03,  2.25800e-03,  1.54400e-03, -1.25300e-03,  2.95800e-04, -3.63400e-06, -5.02500e-06,  6.44800e-05],
                           [ 3.09600e-05, -6.12200e-03, -2.29600e-03,  1.87700e-03, -2.63500e-04,  1.53600e-04, -9.89300e-05, -3.36600e-05]])

# Reaction 9
chebyshev_reaction('O2 + aR (+ M) <=> aQOOH[O] (+ M)',
                   Tmin=180.0, Tmax=1500.0,
                   Pmin=(0.01, 'atm'), Pmax=(98.692, 'atm'),
                   coeffs=[[ 5.11200e+00,  1.73300e+00, -1.61900e-01, -6.82700e-02, -1.72800e-02, -2.14400e-04,  1.83800e-03,  6.44300e-04],
                           [-7.05200e-02,  1.73700e-01,  9.93300e-02,  3.61800e-02,  4.95300e-03, -2.89000e-03, -1.96500e-03, -3.17300e-04],
                           [ 9.53400e-02,  5.95600e-02,  3.72900e-02,  1.66500e-02,  4.57100e-03,  1.43800e-05, -7.29900e-04, -3.87800e-04],
                           [ 1.09800e-01,  1.00400e-02,  6.06700e-03,  2.54800e-03,  6.21700e-04, -3.75200e-05, -1.24800e-04, -7.25200e-05],
                           [-8.64800e-04, -9.57600e-03, -4.04600e-03, -6.02300e-06,  1.22800e-03,  8.49900e-04,  2.44300e-04, -4.86200e-05],
                           [-1.40200e-02, -7.02300e-03, -3.55500e-03, -7.63400e-04,  4.08000e-04,  4.76800e-04,  2.19800e-04,  3.35700e-05],
                           [ 3.82300e-03,  2.29600e-03,  8.32900e-04, -1.41400e-04, -3.32700e-04, -1.48800e-04,  1.82700e-05,  6.11200e-05],
                           [ 3.06700e-03,  3.71700e-03,  1.66500e-03,  1.42000e-04, -3.57100e-04, -2.58400e-04, -6.40200e-05,  2.73900e-05],
                           [-8.03800e-03, -1.36900e-04,  2.33000e-04,  3.80900e-04,  2.73900e-04,  1.01300e-04, -1.00200e-06, -2.37800e-05],
                           [ 1.31600e-03, -4.90300e-03, -2.66400e-03, -8.42400e-04, -2.64100e-05,  1.12700e-04,  4.40300e-05, -6.93700e-06]])
#  aQOOHb(+M) <=> aQOOHg(+M)                           1.000e+00 0.000     0.000
#      TCHEB/ 180.000   1500.000 /
#      PCHEB/ 0.010     98.692   /
#      CHEB/ 10 8/
#      CHEB/ -5.464e+00   1.814e+00    -6.214e-01   -6.780e-02   7.465e-03   /
#      CHEB/ 6.662e-03    1.107e-03    -6.478e-04   6.434e+00    1.548e+00   /
#      CHEB/ 2.057e-01    -5.804e-02   -2.477e-02   -7.352e-03   9.802e-04   /
#      CHEB/ 1.804e-03    6.126e-01    2.845e-01    1.589e-01    1.267e-02   /
#      CHEB/ -6.762e-03   -2.498e-03   -3.006e-03   -4.531e-04   -8.146e-02  /
#      CHEB/ 8.484e-02    7.047e-02    1.383e-02    -5.251e-03   9.237e-04   /
#      CHEB/ 6.544e-04    -1.113e-03   -8.837e-02   1.800e-02    1.454e-02   /
#      CHEB/ 1.214e-02    -6.642e-04   -1.344e-03   1.385e-03    2.192e-04   /
#      CHEB/ -4.736e-02   -1.198e-02   3.903e-03    5.646e-03    1.674e-03   /
#      CHEB/ -1.319e-03   -8.449e-05   6.752e-04    -1.952e-02   -4.094e-04  /
#      CHEB/ 1.520e-03    3.098e-03    1.155e-03    -7.162e-04   -6.078e-04  /
#      CHEB/ 2.461e-04    -5.334e-03   1.574e-04    1.371e-03    1.247e-03   /
#      CHEB/ 8.392e-04    -9.500e-05   -4.597e-04   -9.695e-05   -3.685e-03  /
#      CHEB/ -5.079e-03   -2.366e-03   4.481e-04    9.098e-04    3.545e-04   /
#      CHEB/ -1.614e-04   -2.014e-04   -3.252e-03   -5.812e-03   -2.529e-03  /
#      CHEB/ -3.790e-04   5.991e-04    4.398e-04    2.246e-05    -1.311e-04  /
#  aQOOH[O](+M) <=> aQOOHg(+M)                         1.000e+00 0.000     0.000
#      TCHEB/ 180.000   1500.000 /
#      PCHEB/ 0.010     98.692   /
#      CHEB/ 10 8/
#      CHEB/ 1.338e+00    1.924e+00    -3.995e-01   -5.507e-02   1.092e-02   /
#      CHEB/ 7.683e-03    2.057e-03    -4.838e-04   2.969e+00    1.576e+00   /
#      CHEB/ 4.605e-02    3.386e-04    -1.516e-02   -9.967e-03   -7.888e-04  /
#      CHEB/ 1.408e-03    1.783e-01    2.150e-01    1.605e-01    -1.174e-02  /
#      CHEB/ 8.230e-04    4.190e-03    -3.225e-03   -9.198e-04   -7.287e-02  /
#      CHEB/ 3.355e-02    2.791e-02    -1.321e-02   -6.830e-03   1.136e-03   /
#      CHEB/ 2.262e-03    -5.062e-04   -9.262e-02   2.854e-02    1.495e-02   /
#      CHEB/ 9.291e-03    -8.897e-03   -1.583e-03   1.624e-03    2.788e-05   /