units(length='cm', time='s', quantity='mol', act_energy='kcal/mol')

ideal_gas(name='gas',
          elements="H D T C Ci O Oi N Ne Ar He Si S F Cl Br I X",
          species="""propene3ol       OH               disub_c4ether
                     H2O              disub_epoxy      gQOOHa
                     propene1ol       gQOOHb           ipropylOOH
                     galdoxy          galkene          CH2O
                     O2               gRO2             gQOOHg
                     gR               galdol           monosub_c4ether
                     HO2              gQOOH[O]""",
          reactions='all',
          initial_state=state(temperature=300.0, pressure=OneAtm))

#-------------------------------------------------------------------------------
# Element data
#-------------------------------------------------------------------------------

element(symbol='Ci', atomic_mass=13.003)
element(symbol='D', atomic_mass=2.014)
element(symbol='Oi', atomic_mass=18.0)
element(symbol='T', atomic_mass=3.016)
element(symbol='X', atomic_mass=195.083)
#-------------------------------------------------------------------------------
# Species data
#-------------------------------------------------------------------------------

species(name='propene3ol',
        atoms='C:3 H:6 O:1',
        thermo=(NASA([10.00, 444.81],
                     [ 3.92769709E+00,  4.89977303E-03,  1.13094874E-04,
                      -2.59008187E-07,  1.86205760E-10, -1.53531126E+04,
                       9.90805416E+00]),
                NASA([444.81, 3000.00],
                     [ 2.61720343E+00,  3.01777872E-02, -1.76511625E-05,
                       5.14864061E-09, -5.91153761E-13, -1.53700131E+04,
                       1.36683107E+01])))

species(name='OH',
        atoms='H:1 O:1',
        thermo=(NASA([10.00, 984.14],
                     [ 3.49686242E+00,  1.83973160E-04, -9.97634499E-07,
                       1.56942783E-09, -6.10128175E-13,  3.41673934E+03,
                       1.48093120E+00]),
                NASA([984.14, 3000.00],
                     [ 3.45221464E+00, -2.95124034E-04,  7.39418622E-07,
                      -2.89309866E-10,  3.53041498E-14,  3.45751599E+03,
                       1.85813897E+00])))

species(name='disub_c4ether',
        atoms='C:4 H:8 O:2',
        thermo=(NASA([10.00, 413.50],
                     [ 3.78241323E+00,  1.89501763E-02,  8.65302396E-05,
                      -1.80580575E-07,  1.13656264E-10, -3.87118169E+04,
                       1.09982450E+01]),
                NASA([413.50, 3000.00],
                     [ 4.29420885E-01,  5.13851903E-02, -3.11292293E-05,
                       9.11498284E-09, -1.03192718E-12, -3.84345226E+04,
                       2.42134976E+01])))

species(name='H2O',
        atoms='H:2 O:1',
        thermo=(NASA([10.00, 773.84],
                     [ 4.00473541E+00, -2.39729134E-04,  8.11862955E-07,
                       1.47891862E-09, -1.19783539E-12, -3.03533807E+04,
                      -9.96254147E-02]),
                NASA([773.84, 3000.00],
                     [ 3.52133374E+00,  1.05377009E-03,  6.40722099E-07,
                      -3.86240235E-10,  5.49243294E-14, -3.02424794E+04,
                       2.34173094E+00])))

species(name='disub_epoxy',
        atoms='C:4 H:8 O:2',
        thermo=(NASA([10.00, 549.41],
                     [ 3.89863211E+00,  5.97532637E-03,  1.66685676E-04,
                      -3.10743768E-07,  1.78330192E-10, -3.68092872E+04,
                       1.13847308E+01]),
                NASA([549.41, 3000.00],
                     [-6.40277648E-01,  6.05960003E-02, -4.13427220E-05,
                       1.31555461E-08, -1.57685017E-12, -3.66361704E+04,
                       2.76005436E+01])))

species(name='gQOOHa',
        atoms='C:4 H:9 O:3',
        thermo=(NASA([10.00, 160.74],
                     [ 3.80808147E+00,  2.31043884E-02,  5.26945984E-04,
                      -3.11500696E-06,  6.03881958E-09, -2.69154792E+04,
                       1.17645316E+01]),
                NASA([160.74, 3000.00],
                     [ 2.90630300E+00,  6.50241173E-02, -4.60073244E-05,
                       1.51330930E-08, -1.87074267E-12, -2.69116546E+04,
                       1.36838819E+01])))

species(name='propene1ol',
        atoms='C:3 H:6 O:1',
        thermo=(NASA([10.00, 459.42],
                     [ 3.91245344E+00,  5.85800161E-03,  1.15412006E-04,
                      -2.68014417E-07,  1.91800131E-10, -2.08074082E+04,
                       8.14807684E+00]),
                NASA([459.42, 3000.00],
                     [ 3.14049093E+00,  2.95550898E-02, -1.73843684E-05,
                       5.11506211E-09, -5.92966137E-13, -2.09156307E+04,
                       9.32215170E+00])))

species(name='gQOOHb',
        atoms='C:4 H:9 O:3',
        thermo=(NASA([10.00, 1018.67],
                     [ 3.99028351E+00,  4.29665712E-02,  2.28338778E-05,
                      -5.67914439E-08,  2.29383258E-11, -2.49325840E+04,
                       1.20326731E+01]),
                NASA([1018.67, 3000.00],
                     [ 1.38304153E+01,  3.88527019E-02, -2.19473905E-05,
                       5.78719895E-09, -5.85097740E-13, -2.87286688E+04,
                      -4.44147388E+01])))

species(name='ipropylOOH',
        atoms='C:3 H:7 O:2',
        thermo=(NASA([10.00, 405.01],
                     [ 3.30075623E+00,  7.58672756E-02, -3.35754269E-04,
                       8.05972164E-07, -6.68864582E-10, -5.31864529E+02,
                       1.43372849E+01]),
                NASA([405.01, 3000.00],
                     [ 2.51742509E+00,  3.72760950E-02, -2.12450220E-05,
                       5.83593926E-09, -6.22110649E-13, -8.84569224E+01,
                       2.20991392E+01])))

species(name='galdoxy',
        atoms='C:4 H:7 O:2',
        thermo=(NASA([10.00, 209.62],
                     [ 3.82641108E+00,  1.84758886E-02,  3.43073800E-04,
                      -1.82817005E-06,  2.98516720E-09, -1.63628401E+04,
                       1.17972706E+01]),
                NASA([209.62, 3000.00],
                     [ 4.22049016E+00,  4.03370149E-02, -2.36129482E-05,
                       6.72979114E-09, -7.47862493E-13, -1.64439099E+04,
                       8.97211724E+00])))

species(name='galkene',
        atoms='C:4 H:8 O:1',
        thermo=(NASA([10.00, 383.47],
                     [ 3.84035604E+00,  1.20378740E-02,  1.87486319E-04,
                      -5.44759148E-07,  4.80711015E-10, -1.85439733E+04,
                       1.02570291E+01]),
                NASA([383.47, 3000.00],
                     [ 4.00413385E+00,  3.79025144E-02, -2.15435710E-05,
                       6.15213311E-09, -6.97446345E-13, -1.87592627E+04,
                       6.98052628E+00])))

species(name='CH2O',
        atoms='C:1 H:2 O:1',
        thermo=(NASA([10.00, 601.31],
                     [ 4.03190845E+00, -1.93233367E-03,  8.89743345E-06,
                       2.98105926E-09, -7.90813886E-12, -1.42276270E+04,
                       3.47574660E+00]),
                NASA([601.31, 3000.00],
                     [ 1.40134195E+00,  9.48858016E-03, -4.43088317E-06,
                       9.48452194E-10, -7.43790219E-14, -1.38013869E+04,
                       1.57423780E+01])))

species(name='O2',
        atoms='O:2',
        thermo=(NASA([10.00, 605.96],
                     [ 3.50743498E+00, -4.43860349E-04,  1.45938058E-06,
                       1.61509333E-09, -2.32050052E-12, -9.24756224E+02,
                       4.72183634E+00]),
                NASA([605.96, 3000.00],
                     [ 2.87462882E+00,  2.17840991E-03, -1.18262921E-06,
                       2.86910493E-10, -2.53297146E-14, -8.19517838E+02,
                       7.69331810E+00])))

species(name='gRO2',
        atoms='C:4 H:9 O:3',
        thermo=(NASA([10.00, 177.33],
                     [ 3.70632176E+00,  3.49733664E-02,  4.64036392E-04,
                      -3.18637835E-06,  6.38178607E-09, -2.80959809E+04,
                       1.24459269E+01]),
                NASA([177.33, 3000.00],
                     [ 4.82062697E+00,  5.17179689E-02, -3.18386818E-05,
                       9.52247045E-09, -1.10180288E-12, -2.82013515E+04,
                       7.14082953E+00])))

species(name='gQOOHg',
        atoms='C:4 H:9 O:3',
        thermo=(NASA([10.00, 475.03],
                     [ 3.42273720E+00,  4.98344215E-02,  6.47820920E-05,
                      -2.49842966E-07,  1.98636537E-10, -2.20470917E+04,
                       1.41578583E+01]),
                NASA([475.03, 3000.00],
                     [ 5.94049074E+00,  5.53778585E-02, -3.71708255E-05,
                       1.17540477E-08, -1.40812095E-12, -2.25880460E+04,
                       7.09201218E-01])))

species(name='gR',
        atoms='C:4 H:9 O:1',
        thermo=(NASA([10.00, 638.24],
                     [ 3.37074633E+00,  5.17529751E-02, -6.54872940E-05,
                       6.88084237E-08, -3.21569794E-11, -9.98272859E+03,
                       1.14339669E+01]),
                NASA([638.24, 3000.00],
                     [ 3.99410860E+00,  4.06314915E-02, -2.23932510E-05,
                       6.08356263E-09, -6.49884708E-13, -9.91535388E+03,
                       9.85769960E+00])))

species(name='galdol',
        atoms='C:4 H:8 O:2',
        thermo=(NASA([10.00, 506.68],
                     [ 3.85380874E+00,  9.21272695E-03,  1.86712348E-04,
                      -3.96417049E-07,  2.55528268E-10, -4.49508766E+04,
                       1.24312743E+01]),
                NASA([506.68, 3000.00],
                     [ 1.49710213E+00,  5.65979142E-02, -3.87709084E-05,
                       1.23682052E-08, -1.48287964E-12, -4.50814860E+04,
                       1.85531759E+01])))

species(name='monosub_c4ether',
        atoms='C:4 H:8 O:2',
        thermo=(NASA([10.00, 380.36],
                     [ 3.47743996E+00,  6.08051311E-02, -2.78518945E-04,
                       8.23182713E-07, -7.87158031E-10, -3.36731321E+04,
                       1.06415154E+01]),
                NASA([380.36, 3000.00],
                     [-1.09346901E+00,  5.35985968E-02, -3.21081420E-05,
                       9.20818293E-09, -1.01830294E-12, -3.29255720E+04,
                       3.35312368E+01])))

species(name='HO2',
        atoms='H:1 O:2',
        thermo=(NASA([10.00, 891.11],
                     [ 4.02887004E+00, -1.75769289E-03,  1.08726004E-05,
                      -1.13812972E-08,  3.90113097E-12,  4.95165001E+02,
                       4.69302008E+00]),
                NASA([891.11, 3000.00],
                     [ 3.06571044E+00,  4.28505005E-03, -2.19325920E-06,
                       5.58882699E-10, -5.61246669E-14,  5.98557610E+02,
                       8.84564156E+00])))

species(name='gQOOH[O]',
        atoms='C:4 H:9 O:3',
        thermo=(NASA([10.00, 535.23],
                     [ 3.83107445E+00,  1.02302002E-02,  2.29377261E-04,
                      -4.59095575E-07,  2.77765018E-10, -1.77222621E+04,
                       1.41034859E+01]),
                NASA([535.23, 3000.00],
                     [-4.19283096E-01,  7.69784620E-02, -5.57279000E-05,
                       1.81378295E-08, -2.18295635E-12, -1.77683755E+04,
                       2.72711816E+01])))

#-------------------------------------------------------------------------------
# Reaction data
#-------------------------------------------------------------------------------

# Reaction 1
chebyshev_reaction('gQOOH[O] (+ M) <=> gRO2 (+ M)',
                   Tmin=180.0, Tmax=1500.0,
                   Pmin=(0.01, 'atm'), Pmax=(98.692, 'atm'),
                   coeffs=[[ 8.94700e+00,  1.57600e+00, -2.29300e-01, -3.52900e-02,  9.35900e-03,  5.26500e-03, -1.76400e-04, -7.05900e-04],
                           [-9.83700e-01,  6.03600e-01,  1.17700e-01,  2.03000e-03, -1.30900e-02, -1.89800e-03,  9.88800e-04,  3.84200e-04],
                           [-9.99100e-01,  3.31400e-01,  6.07000e-02,  1.59200e-02, -3.76100e-03, -3.40300e-03, -3.47700e-04,  5.54700e-04],
                           [-5.43000e-01,  1.45900e-01,  7.93700e-03,  1.12100e-02,  2.88600e-03, -1.03000e-03, -8.67600e-04, -2.40900e-05],
                           [-2.40900e-01,  8.73900e-02, -1.34600e-02, -1.14600e-03,  2.78500e-03,  9.32600e-04, -2.74800e-04, -2.19700e-04],
                           [-9.19900e-02,  5.93000e-02, -1.13500e-02, -6.20300e-03,  8.54500e-05,  9.91200e-04,  2.91900e-04, -7.50100e-05],
                           [-2.37400e-02,  3.27500e-02, -5.27800e-03, -4.52100e-03, -9.13300e-04,  2.81700e-04,  3.00200e-04,  4.84100e-05],
                           [-1.25900e-02,  2.54400e-02,  1.75500e-04, -2.94700e-03, -1.01000e-03, -1.29000e-05,  1.74900e-04,  5.43900e-05],
                           [ 3.90300e-03,  2.71000e-03,  4.14600e-04,  2.27500e-04,  1.13400e-04, -1.74200e-04, -1.41800e-04,  5.76100e-06],
                           [ 6.55400e-03, -6.33100e-03,  7.48400e-04,  1.37100e-03,  2.20100e-04, -1.37900e-04, -9.38500e-05, -3.05300e-05]])

# Reaction 2
chebyshev_reaction('gQOOHa (+ M) <=> gRO2 (+ M)',
                   Tmin=180.0, Tmax=1500.0,
                   Pmin=(0.01, 'atm'), Pmax=(98.692, 'atm'),
                   coeffs=[[ 1.66600e+00,  3.11200e-01, -8.67700e-02,  1.07700e-02,  5.13700e-04, -4.74800e-04, -2.21200e-05,  5.28600e-05],
                           [ 5.68000e+00,  5.65300e-01, -1.48300e-01,  1.41500e-02,  2.36100e-03, -9.81000e-04, -9.35600e-05,  1.10600e-04],
                           [ 3.36800e-01,  4.25600e-01, -9.02000e-02, -1.16400e-03,  4.46700e-03, -7.60400e-04, -2.44800e-04,  1.13600e-04],
                           [-4.36700e-01,  2.69800e-01, -3.34300e-02, -1.20500e-02,  4.41600e-03, -2.60200e-06, -4.18900e-04,  8.38400e-05],
                           [-1.99300e-01,  1.46800e-01,  5.63000e-04, -1.32600e-02,  2.05300e-03,  8.42000e-04, -4.39200e-04,  5.34900e-06],
                           [-7.58600e-02,  6.97400e-02,  1.18900e-02, -8.35100e-03, -4.84600e-04,  1.11700e-03, -2.42300e-04, -8.40200e-05],
                           [-5.14200e-02,  2.88100e-02,  1.07600e-02, -2.88100e-03, -1.60600e-03,  7.54900e-04,  2.27600e-05, -1.21600e-04],
                           [-2.86600e-02,  9.90500e-03,  6.08300e-03,  3.39800e-04, -1.37000e-03,  2.00300e-04,  1.70100e-04, -8.89000e-05],
                           [-1.06400e-02,  2.35000e-03,  2.22400e-03,  1.28300e-03, -6.20500e-04, -1.49800e-04,  1.56500e-04, -2.58800e-05],
                           [-4.12800e-03, -9.50500e-05,  1.98200e-04,  9.92400e-04, -2.08700e-05, -2.14200e-04,  6.53200e-05,  1.81300e-05]])

# Reaction 3
chebyshev_reaction('gQOOHg (+ M) <=> gRO2 (+ M)',
                   Tmin=180.0, Tmax=1500.0,
                   Pmin=(0.01, 'atm'), Pmax=(98.692, 'atm'),
                   coeffs=[[ 5.60200e+00,  2.56700e-01, -5.99900e-02,  9.08300e-03, -2.03200e-03,  5.62300e-05,  1.51700e-04, -2.19900e-05],
                           [ 2.19000e+00,  4.76400e-01, -1.06600e-01,  1.44900e-02, -3.05200e-03, -9.96900e-05,  3.11400e-04, -3.43100e-05],
                           [ 3.29400e-01,  3.80800e-01, -7.36500e-02,  6.15400e-03, -8.86800e-04, -5.01800e-04,  2.95400e-04, -4.78800e-06],
                           [-2.23100e-01,  2.61900e-01, -3.69000e-02, -1.50300e-03,  8.04700e-04, -6.95800e-04,  2.06300e-04,  3.57500e-05],
                           [-2.18200e-01,  1.53800e-01, -9.48800e-03, -4.95500e-03,  1.19200e-03, -5.54100e-04,  6.87600e-05,  6.56100e-05],
                           [-1.09600e-01,  7.53600e-02,  4.21800e-03, -4.34900e-03,  6.53800e-04, -2.65200e-04, -4.23500e-05,  6.76000e-05],
                           [-4.39700e-02,  2.89200e-02,  7.19100e-03, -1.98800e-03,  2.34000e-05, -5.82700e-05, -8.25900e-05,  4.51600e-05],
                           [-1.90800e-02,  6.98700e-03,  4.93700e-03,  6.87100e-06, -2.17000e-04,  1.29800e-06, -6.79300e-05,  1.66700e-05],
                           [-9.07900e-03, -4.17200e-04,  1.80700e-03,  8.16000e-04, -1.05800e-04, -1.33700e-05, -3.94000e-05, -2.45700e-06],
                           [-3.43800e-03, -1.34400e-03, -1.70800e-04,  6.88000e-04,  9.12000e-05, -1.93500e-05, -2.13100e-05, -9.22900e-06]])

# Reaction 4
chebyshev_reaction('gQOOHb (+ M) <=> gRO2 (+ M)',
                   Tmin=180.0, Tmax=1500.0,
                   Pmin=(0.01, 'atm'), Pmax=(98.692, 'atm'),
                   coeffs=[[ 1.08000e+00,  6.99500e-01, -8.60900e-02, -1.03500e-02,  2.43000e-04,  3.29600e-04, -1.03800e-05,  1.19800e-05],
                           [ 3.85900e+00,  1.19500e+00, -1.25300e-01, -2.00900e-02, -1.08100e-03,  6.15600e-04,  4.91300e-05,  2.57200e-05],
                           [ 7.09600e-01,  7.25200e-01, -2.77300e-02, -1.57500e-02, -4.16700e-03,  3.05900e-04,  1.77400e-04,  3.91600e-05],
                           [-2.74000e-01,  2.80900e-01,  4.04000e-02, -5.87000e-03, -5.46900e-03, -4.09200e-04,  1.90900e-04,  6.72200e-05],
                           [-2.99600e-01,  4.47600e-02,  4.51100e-02,  4.28300e-03, -3.33800e-03, -1.10100e-03,  2.01700e-06,  7.99800e-05],
                           [-1.38000e-01, -4.56000e-03,  1.54300e-02,  7.61700e-03,  4.22600e-04, -1.09800e-03, -2.58700e-04,  3.86900e-05],
                           [-4.38000e-02,  1.40800e-02, -6.78800e-03,  4.03400e-03,  2.58600e-03, -3.50800e-04, -3.46000e-04, -4.45400e-05],
                           [-1.63100e-02,  2.12300e-02, -8.82900e-03, -5.23800e-04,  2.00200e-03,  4.26500e-04, -1.75000e-04, -9.96000e-05],
                           [-9.77100e-03,  9.54300e-03, -2.21600e-03, -1.89600e-03,  2.76500e-04,  5.96000e-04,  7.37200e-05, -7.49100e-05],
                           [-4.58600e-03, -1.50900e-03,  1.68000e-03, -9.00700e-04, -6.57400e-04,  2.55100e-04,  1.72000e-04, -1.76200e-06]])

# Reaction 5
chebyshev_reaction('O2 + gR (+ M) <=> gRO2 (+ M)',
                   Tmin=180.0, Tmax=1500.0,
                   Pmin=(0.01, 'atm'), Pmax=(98.692, 'atm'),
                   coeffs=[[ 1.33100e+01,  3.64300e-01, -7.04000e-02,  5.19500e-03, -1.77800e-03,  5.93300e-04, -9.07400e-05,  1.90900e-05],
                           [-1.16500e+00,  5.91800e-01, -8.29600e-02, -8.17200e-03,  1.99100e-03, -3.36500e-04,  1.59800e-04, -1.79400e-05],
                           [-5.85300e-01,  3.82800e-01, -2.43500e-02, -1.37400e-02,  9.45900e-04,  2.13700e-04,  9.23200e-07,  8.47400e-06],
                           [-3.12000e-01,  2.02600e-01,  6.83500e-03, -8.93500e-03, -1.27400e-03,  3.67200e-04,  3.99700e-05, -6.37500e-06],
                           [-1.55400e-01,  8.08200e-02,  1.68100e-02, -3.28600e-03, -1.61800e-03, -3.42800e-05,  9.55300e-05,  4.17600e-06],
                           [-6.65800e-02,  1.60300e-02,  1.49800e-02,  1.03300e-04, -9.30900e-04, -2.78900e-04,  4.10700e-05,  1.97400e-05],
                           [-2.37800e-02, -6.29700e-03,  8.16500e-03,  1.50200e-03, -2.52000e-04, -2.37600e-04, -2.93200e-05,  1.33100e-05],
                           [-7.69300e-03, -7.00700e-03,  2.05100e-03,  1.43800e-03,  1.46200e-04, -9.47400e-05, -5.25500e-05, -1.77600e-06],
                           [-2.84000e-03, -2.85800e-03, -6.73000e-04,  6.51100e-04,  2.69000e-04,  1.51300e-05, -3.50800e-05, -1.01500e-05],
                           [-1.05400e-03, -6.86600e-04, -8.64500e-04,  5.21500e-05,  1.53700e-04,  6.44700e-05, -6.61700e-06, -9.19200e-06]])
#  gRO2(+M) <=> gQOOH[O](+M)                           1.000e+00 0.000     0.000
#      TCHEB/ 180.000   1500.000 /
#      PCHEB/ 0.010     98.692   /
#      CHEB/ 10 8/
#      CHEB/ -5.555e+00   1.576e+00    -2.293e-01   -3.529e-02   9.359e-03   /
#      CHEB/ 5.265e-03    -1.764e-04   -7.059e-04   9.765e+00    6.036e-01   /
#      CHEB/ 1.177e-01    2.030e-03    -1.309e-02   -1.898e-03   9.888e-04   /
#      CHEB/ 3.842e-04    -8.261e-01   3.314e-01    6.070e-02    1.592e-02   /
#      CHEB/ -3.761e-03   -3.403e-03   -3.477e-04   5.547e-04    -4.182e-01  /
#      CHEB/ 1.459e-01    7.937e-03    1.121e-02    2.886e-03    -1.030e-03  /
#      CHEB/ -8.676e-04   -2.409e-05   -1.873e-01   8.739e-02    -1.346e-02  /
#      CHEB/ -1.146e-03   2.785e-03    9.326e-04    -2.748e-04   -2.197e-04  /
#      CHEB/ -7.294e-02   5.930e-02    -1.135e-02   -6.203e-03   8.545e-05   /
#      CHEB/ 9.912e-04    2.919e-04    -7.501e-05   -1.753e-02   3.275e-02   /
#      CHEB/ -5.278e-03   -4.521e-03   -9.133e-04   2.817e-04    3.002e-04   /
#      CHEB/ 4.841e-05    -1.067e-02   2.544e-02    1.755e-04    -2.947e-03  /
#      CHEB/ -1.010e-03   -1.290e-05   1.749e-04    5.439e-05    4.365e-03   /
#      CHEB/ 2.710e-03    4.146e-04    2.275e-04    1.134e-04    -1.742e-04  /
#      CHEB/ -1.418e-04   5.761e-06    6.525e-03    -6.331e-03   7.484e-04   /
#      CHEB/ 1.371e-03    2.201e-04    -1.379e-04   -9.385e-05   -3.053e-05  /

# Reaction 6
chebyshev_reaction('gQOOHa (+ M) <=> gQOOH[O] (+ M)',
                   Tmin=180.0, Tmax=1500.0,
                   Pmin=(0.01, 'atm'), Pmax=(98.692, 'atm'),
                   coeffs=[[-8.03700e+00,  2.11100e-02, -2.91100e-01, -2.80700e-02,  3.34500e-03,  6.03200e-03,  5.42400e-04, -6.97100e-04],
                           [ 9.91700e+00,  1.08100e+00, -8.89800e-03,  3.14600e-02, -5.58900e-03, -5.72200e-03, -2.22200e-04,  5.69700e-04],
                           [-4.86400e-01,  6.44300e-01, -9.43700e-03,  6.01200e-03,  6.40500e-03, -3.86000e-03, -9.89500e-04,  5.11700e-04],
                           [-2.63900e-01,  3.07900e-01, -2.17600e-02, -1.54900e-02,  9.12600e-03,  1.44700e-03, -9.80100e-04, -1.55700e-04],
                           [-1.34900e-01,  1.45300e-01, -1.55500e-02, -1.83300e-02,  2.44800e-03,  3.06200e-03, -2.25400e-04, -2.46700e-04],
                           [-9.68300e-02,  7.25200e-02,  7.25500e-04, -1.05200e-02, -2.60200e-03,  1.58400e-03,  2.70000e-04, -1.08100e-04],
                           [-5.45300e-02,  3.10900e-02,  8.39600e-03, -2.12500e-03, -2.87500e-03,  1.78400e-04,  2.62700e-04, -6.91500e-05],
                           [-2.33900e-02,  1.66900e-02,  9.93000e-03,  1.15400e-03, -1.90800e-03, -3.69300e-04,  2.36200e-04, -1.83700e-05],
                           [ 8.00300e-03, -5.93100e-03,  2.55000e-03,  2.79800e-03,  3.25400e-04, -3.00800e-04, -6.73500e-05, -4.60900e-05],
                           [ 1.16600e-02, -1.07600e-02, -1.37900e-03,  1.92900e-03,  8.66400e-04, -9.35500e-05, -9.04600e-05, -2.59100e-05]])

# Reaction 7
chebyshev_reaction('gQOOHg (+ M) <=> gQOOH[O] (+ M)',
                   Tmin=180.0, Tmax=1500.0,
                   Pmin=(0.01, 'atm'), Pmax=(98.692, 'atm'),
                   coeffs=[[-3.39300e+00, -2.13600e-02, -2.44600e-01, -3.35800e-02,  1.04500e-03,  5.54400e-03,  9.60600e-04, -5.89300e-04],
                           [ 5.61800e+00,  9.73500e-01,  3.16200e-02,  3.89700e-02, -9.72400e-03, -5.62900e-03, -2.70700e-04,  5.52800e-04],
                           [-2.22300e-01,  5.96300e-01, -1.68700e-02,  2.13400e-02,  8.94300e-04, -3.58800e-03, -3.88300e-04,  3.32400e-04],
                           [-1.87800e-01,  2.99600e-01, -4.52100e-02, -2.65700e-03,  5.61100e-03,  5.36500e-04,  6.11300e-05, -2.20100e-04],
                           [-1.01500e-01,  1.44200e-01, -2.89200e-02, -1.11500e-02,  2.53600e-03,  9.58100e-04,  3.27600e-04, -5.60300e-05],
                           [-8.85100e-02,  7.19700e-02, -1.65800e-03, -7.30400e-03, -7.02600e-04, -1.75800e-04,  1.21300e-04,  1.69300e-04],
                           [-5.84300e-02,  2.86000e-02,  9.40000e-03, -1.29000e-03, -8.60200e-04, -5.01700e-04, -1.53200e-04,  1.04800e-04],
                           [-2.58400e-02,  1.28700e-02,  9.74300e-03,  1.06500e-03, -6.65700e-04, -3.06800e-04, -1.00300e-04,  3.52700e-05],
                           [ 1.05100e-02, -8.46600e-03,  8.35700e-04,  2.09900e-03,  8.46100e-04,  6.34000e-05, -2.10700e-04, -8.16000e-05],
                           [ 1.42400e-02, -1.12300e-02, -2.97100e-03,  1.13700e-03,  9.49300e-04,  2.12200e-04, -1.04000e-04, -7.95800e-05]])

# Reaction 8
chebyshev_reaction('gQOOHb (+ M) <=> gQOOH[O] (+ M)',
                   Tmin=180.0, Tmax=1500.0,
                   Pmin=(0.01, 'atm'), Pmax=(98.692, 'atm'),
                   coeffs=[[-8.83900e+00,  5.34800e-01, -3.04000e-01, -3.77600e-02,  2.18000e-03,  4.62900e-03,  7.49500e-04, -4.59500e-04],
                           [ 8.60300e+00,  1.73100e+00,  3.74100e-02,  6.03000e-04, -6.95300e-03, -5.55500e-03, -4.99800e-04,  6.58700e-04],
                           [-2.64700e-01,  7.65100e-01,  9.73800e-02, -1.28300e-02, -3.87500e-03, -6.52800e-04, -7.38300e-04,  1.59100e-04],
                           [-2.57200e-01,  2.26300e-01,  4.32000e-02, -3.70900e-03, -3.90000e-03,  1.79800e-03,  4.01600e-04, -3.78700e-04],
                           [-1.51200e-01,  7.22200e-02, -6.14700e-03,  5.80300e-03, -1.06900e-03, -6.68000e-04,  4.65700e-04,  2.45000e-05],
                           [-1.06100e-01,  3.97900e-02, -9.91900e-03,  6.12700e-03,  1.59400e-03, -1.62400e-03, -3.49900e-04,  2.12500e-04],
                           [-5.94500e-02,  1.28800e-02,  2.98400e-04,  2.19000e-03,  2.20200e-03, -3.37800e-04, -5.47600e-04, -3.80700e-05],
                           [-2.22600e-02,  6.89000e-03,  4.51100e-03, -8.04900e-04,  4.83800e-04,  5.57600e-04, -1.53100e-05, -1.20900e-04],
                           [ 1.31100e-02, -8.06100e-03, -1.08300e-03, -4.36000e-04,  4.01300e-04,  5.90100e-04,  9.92700e-05, -9.85800e-05],
                           [ 1.75700e-02, -1.09900e-02, -1.68400e-03, -2.67800e-04,  8.39400e-05,  2.31000e-04,  1.03300e-04, -8.42900e-06]])

# Reaction 9
chebyshev_reaction('O2 + gR (+ M) <=> gQOOH[O] (+ M)',
                   Tmin=180.0, Tmax=1500.0,
                   Pmin=(0.01, 'atm'), Pmax=(98.692, 'atm'),
                   coeffs=[[ 6.94500e+00,  3.27000e-01, -1.35500e-01, -2.65600e-02, -1.16400e-02, -8.59600e-04,  3.84900e-04,  4.07500e-04],
                           [-9.06500e-01,  7.90400e-01, -1.71400e-02,  1.53300e-02,  9.51900e-03,  2.98000e-04, -5.68100e-04, -4.79000e-04],
                           [-4.53200e-01,  4.65800e-01,  7.45100e-03, -6.56200e-03,  2.91800e-03,  5.81200e-04, -9.70700e-05, -6.87700e-05],
                           [-7.20100e-02,  1.89900e-01,  6.32600e-03, -1.26200e-02, -2.43500e-03,  8.37900e-04,  4.86200e-04,  1.34800e-04],
                           [-4.67900e-02,  5.83900e-02,  1.83500e-02, -4.08300e-03, -2.87200e-03, -3.95500e-04,  1.21700e-04,  6.50600e-05],
                           [-6.74200e-02, -1.94000e-04,  1.86600e-02,  2.07100e-03, -1.07700e-03, -6.36300e-04, -1.18300e-04, -5.15500e-06],
                           [-3.70100e-02, -1.89200e-02,  9.05600e-03,  3.08100e-03,  1.79600e-04, -2.25500e-04, -9.35000e-05, -1.83600e-05],
                           [-4.96200e-03, -1.16400e-02,  2.88300e-03,  2.49500e-03,  4.78200e-04, -5.84600e-05, -9.44200e-05, -2.42800e-05],
                           [ 2.41900e-02, -9.22600e-03, -3.25600e-03,  4.47600e-06,  3.11900e-04,  1.90700e-04,  4.42800e-05, -1.18700e-06],
                           [ 2.09100e-02, -5.20100e-03, -3.38700e-03, -8.83100e-04, -1.95600e-05,  1.65500e-04,  8.34300e-05,  1.86200e-05]])
#  gRO2(+M) <=> gQOOHa(+M)                             1.000e+00 0.000     0.000
#      TCHEB/ 180.000   1500.000 /
#      PCHEB/ 0.010     98.692   /
#      CHEB/ 10 8/
#      CHEB/ -2.376e-01   3.112e-01    -8.677e-02   1.077e-02    5.137e-04   /
#      CHEB/ -4.748e-04   -2.212e-05   5.286e-05    7.153e+00    5.653e-01   /
#      CHEB/ -1.483e-01   1.415e-02    2.361e-03    -9.810e-04   -9.356e-05  /
#      CHEB/ 1.106e-04    4.985e-01    4.256e-01    -9.020e-02   -1.164e-03  /
#      CHEB/ 4.467e-03    -7.604e-04   -2.448e-04   1.136e-04    -3.625e-01  /
#      CHEB/ 2.698e-01    -3.343e-02   -1.205e-02   4.416e-03    -2.602e-06  /
#      CHEB/ -4.189e-04   8.384e-05    -1.708e-01   1.468e-01    5.630e-04   /
#      CHEB/ -1.326e-02   2.053e-03    8.420e-04    -4.392e-04   5.349e-06   /
#      CHEB/ -6.607e-02   6.974e-02    1.189e-02    -8.351e-03   -4.846e-04  /
#      CHEB/ 1.117e-03    -2.423e-04   -8.402e-05   -4.852e-02   2.881e-02   /
#      CHEB/ 1.076e-02    -2.881e-03   -1.606e-03   7.549e-04    2.276e-05   /
#      CHEB/ -1.216e-04   -2.803e-02   9.905e-03    6.083e-03    3.398e-04   /
#      CHEB/ -1.370e-03   2.003e-04    1.701e-04    -8.890e-05   -1.065e-02  /
#      CHEB/ 2.350e-03    2.224e-03    1.283e-03    -6.205e-04   -1.498e-04  /
#      CHEB/ 1.565e-04    -2.588e-05   -4.246e-03   -9.505e-05   1.982e-04   /
#      CHEB/ 9.924e-04    -2.087e-05   -2.142e-04   6.532e-05    1.813e-05   /
#  gQOOH[O](+M) <=> gQOOHa(+M)                         1.000e+00 0.000     0.000
#      TCHEB/ 180.000   1500.000 /
#      PCHEB/ 0.010     98.692   /
#      CHEB/ 10 8/
#      CHEB/ 4.561e+00    2.111e-02    -2.911e-01   -2.807e-02   3.345e-03   /
#      CHEB/ 6.032e-03    5.424e-04    -6.971e-04   6.417e-01    1.081e+00   /
#      CHEB/ -8.898e-03   3.146e-02    -5.589e-03   -5.722e-03   -2.222e-04  /
#      CHEB/ 5.697e-04    -4.977e-01   6.443e-01    -9.437e-03   6.012e-03   /
#      CHEB/ 6.405e-03    -3.860e-03   -9.895e-04   5.117e-04    -3.145e-01  /
#      CHEB/ 3.079e-01    -2.176e-02   -1.549e-02   9.126e-03    1.447e-03   /
#      CHEB/ -9.801e-04   -1.557e-04   -1.600e-01   1.453e-01    -1.555e-02  /
#      CHEB/ -1.833e-02   2.448e-03    3.062e-03    -2.254e-04   -2.467e-04  /
#      CHEB/ -1.061e-01   7.252e-02    7.255e-04    -1.052e-02   -2.602e-03  /
#      CHEB/ 1.584e-03    2.700e-04    -1.081e-04   -5.783e-02   3.109e-02   /
#      CHEB/ 8.396e-03    -2.125e-03   -2.875e-03   1.784e-04    2.627e-04   /
#      CHEB/ -6.915e-05   -2.467e-02   1.669e-02    9.930e-03    1.154e-03   /
#      CHEB/ -1.908e-03   -3.693e-04   2.362e-04    -1.837e-05   7.538e-03   /
#      CHEB/ -5.931e-03   2.550e-03    2.798e-03    3.254e-04    -3.008e-04  /