units(length='cm', time='s', quantity='mol', act_energy='kcal/mol')

ideal_gas(name='gas',
          elements="H D T C Ci O Oi N Ne Ar He Si S F Cl Br I X",
          species="""aOOHbalkene      OH               ibutanal
                     aR               performic_acid   disub_c4ether
                     aQOOHb           H                aadduct
                     trisub_epoxy     ibutenol         aQOOH[O]
                     ipropyl          aRO2             O2
                     formic_acid      propene          aQOOHg
                     ibut_peroxyacid  HO2              CH3""",
          reactions='all',
          initial_state=state(temperature=300.0, pressure=OneAtm))

#-------------------------------------------------------------------------------
# Element data
#-------------------------------------------------------------------------------

element(symbol='Ci', atomic_mass=13.003)
element(symbol='D', atomic_mass=2.014)
element(symbol='Oi', atomic_mass=18.0)
element(symbol='T', atomic_mass=3.016)
element(symbol='X', atomic_mass=195.083)
#-------------------------------------------------------------------------------
# Species data
#-------------------------------------------------------------------------------

species(name='aOOHbalkene',
        atoms='C:3 H:6 O:3',
        thermo=(NASA([10.00, 497.41],
                     [ 3.76691735E+00,  1.51417956E-02,  1.85499431E-04,
                      -4.61303214E-07,  3.27678941E-10, -3.18269365E+04,
                       1.09903968E+01]),
                NASA([497.41, 3000.00],
                     [ 6.20882781E+00,  4.08866173E-02, -2.89934946E-05,
                       9.60428979E-09, -1.19355432E-12, -3.26312658E+04,
                      -4.72842811E+00])))

species(name='OH',
        atoms='H:1 O:1',
        thermo=(NASA([10.00, 984.14],
                     [ 3.49686242E+00,  1.83973160E-04, -9.97634499E-07,
                       1.56942783E-09, -6.10128175E-13,  3.41673934E+03,
                       1.48093120E+00]),
                NASA([984.14, 3000.00],
                     [ 3.45221464E+00, -2.95124034E-04,  7.39418622E-07,
                      -2.89309866E-10,  3.53041498E-14,  3.45751599E+03,
                       1.85813897E+00])))

species(name='ibutanal',
        atoms='C:4 H:8 O:1',
        thermo=(NASA([10.00, 683.88],
                     [ 3.57157346E+00,  3.36936906E-02, -1.78475021E-05,
                       1.31946716E-08, -7.58008388E-12, -2.48085016E+04,
                       1.05595084E+01]),
                NASA([683.88, 3000.00],
                     [ 1.29043622E+00,  4.14804229E-02, -2.27411206E-05,
                       6.08619500E-09, -6.38995128E-13, -2.43665825E+04,
                       2.16477430E+01])))

species(name='aR',
        atoms='C:4 H:9 O:1',
        thermo=(NASA([10.00, 455.22],
                     [ 3.59625500E+00,  3.38947981E-02,  7.37257079E-06,
                      -3.99275335E-08,  2.49019944E-11, -1.45704288E+04,
                       1.18269265E+01]),
                NASA([455.22, 3000.00],
                     [ 2.49586309E+00,  4.35639890E-02, -2.44887770E-05,
                       6.73363769E-09, -7.23862433E-13, -1.44702456E+04,
                       1.62696907E+01])))

species(name='performic_acid',
        atoms='C:1 H:2 O:3',
        thermo=(NASA([10.00, 590.95],
                     [ 3.92633851E+00,  4.24517168E-03,  6.71106764E-05,
                      -1.36545385E-07,  8.03337864E-11, -3.63028176E+04,
                       8.06485813E+00]),
                NASA([590.95, 3000.00],
                     [ 4.39992934E+00,  1.85411415E-02, -1.36005501E-05,
                       4.62292431E-09, -5.88463603E-13, -3.66643888E+04,
                       3.44353230E+00])))

species(name='disub_c4ether',
        atoms='C:4 H:8 O:2',
        thermo=(NASA([10.00, 413.50],
                     [ 3.78241323E+00,  1.89501763E-02,  8.65302396E-05,
                      -1.80580575E-07,  1.13656264E-10, -3.97127086E+04,
                       1.09982450E+01]),
                NASA([413.50, 3000.00],
                     [ 4.29420885E-01,  5.13851903E-02, -3.11292293E-05,
                       9.11498284E-09, -1.03192718E-12, -3.94354143E+04,
                       2.42134976E+01])))

species(name='aQOOHb',
        atoms='C:4 H:9 O:3',
        thermo=(NASA([10.00, 412.78],
                     [ 3.15498836E+00,  8.55068303E-02, -2.35307993E-04,
                       4.71983261E-07, -3.62709267E-10, -2.89010067E+04,
                       1.52522123E+01]),
                NASA([412.78, 3000.00],
                     [ 4.18099845E+00,  5.26168288E-02, -3.23998410E-05,
                       9.59389339E-09, -1.09464519E-12, -2.87902117E+04,
                       1.35782328E+01])))

species(name='H',
        atoms='H:1',
        thermo=(NASA([10.00, 794.01],
                     [ 2.50000000E+00,  1.99051163E-15, -1.19089508E-17,
                       2.10805655E-20, -1.11017699E-23,  2.54725594E+04,
                      -4.61279342E-01]),
                NASA([794.01, 3000.00],
                     [ 2.50000000E+00,  1.52667235E-14, -1.58445285E-17,
                       6.63088600E-21, -9.62111674E-25,  2.54725594E+04,
                      -4.61279342E-01])))

species(name='aadduct',
        atoms='C:4 H:9 O:3',
        thermo=(NASA([10.00, 449.84],
                     [ 3.06901904E+00,  9.20724491E-02, -2.68085092E-04,
                       5.15249897E-07, -3.68046586E-10, -3.21280311E+04,
                       1.46591735E+01]),
                NASA([449.84, 3000.00],
                     [ 4.11210745E+00,  5.16955724E-02, -2.97401041E-05,
                       8.32758939E-09, -9.08861448E-13, -3.19071901E+04,
                       1.39578825E+01])))

species(name='trisub_epoxy',
        atoms='C:4 H:8 O:2',
        thermo=(NASA([10.00, 209.19],
                     [ 3.75295042E+00,  2.37546930E-02,  1.26610110E-04,
                      -4.78364365E-07,  5.79468168E-10, -4.02402988E+04,
                       1.12739684E+01]),
                NASA([209.19, 3000.00],
                     [ 2.64185254E+00,  4.50006531E-02, -2.57361066E-05,
                       7.15266054E-09, -7.72980731E-13, -4.01938132E+04,
                       1.48960343E+01])))

species(name='ibutenol',
        atoms='C:4 H:8 O:1',
        thermo=(NASA([10.00, 135.97],
                     [ 3.95714996E+00,  5.72646980E-03,  4.63611760E-04,
                      -3.04137514E-06,  6.85019471E-09, -2.30083993E+04,
                       8.21931848E+00]),
                NASA([135.97, 3000.00],
                     [ 3.32467612E+00,  3.69033556E-02, -1.89960416E-05,
                       4.73417677E-09, -4.59705291E-13, -2.30028206E+04,
                       9.58133237E+00])))

species(name='aQOOH[O]',
        atoms='C:4 H:9 O:3',
        thermo=(NASA([10.00, 488.36],
                     [ 3.54559533E+00,  3.89536133E-02,  8.47689703E-05,
                      -2.45147486E-07,  1.76157259E-10, -2.44075157E+04,
                       1.34685910E+01]),
                NASA([488.36, 3000.00],
                     [ 3.94214913E+00,  5.71928314E-02, -3.72516212E-05,
                       1.15209013E-08, -1.35808341E-12, -2.47024767E+04,
                       9.21628964E+00])))

species(name='ipropyl',
        atoms='C:3 H:7',
        thermo=(NASA([10.00, 421.76],
                     [ 3.73943775E+00,  3.10070157E-02, -1.51196908E-04,
                       4.35367329E-07, -3.85565052E-10,  9.49213457E+03,
                       7.79448918E+00]),
                NASA([421.76, 3000.00],
                     [-4.74526725E-01,  3.20862468E-02, -1.67340747E-05,
                       4.21365136E-09, -4.13155573E-13,  1.01934458E+04,
                       2.85865912E+01])))

species(name='aRO2',
        atoms='C:4 H:9 O:3',
        thermo=(NASA([10.00, 670.36],
                     [ 3.45405325E+00,  4.74751311E-02,  9.77507759E-06,
                      -6.31019603E-08,  3.75500067E-11, -3.32169066E+04,
                       1.39284976E+01]),
                NASA([670.36, 3000.00],
                     [ 5.04137652E+00,  5.19952978E-02, -3.16472789E-05,
                       9.22798587E-09, -1.03598915E-12, -3.37440992E+04,
                       4.56056770E+00])))

species(name='O2',
        atoms='O:2',
        thermo=(NASA([10.00, 605.96],
                     [ 3.50743498E+00, -4.43860349E-04,  1.45938058E-06,
                       1.61509333E-09, -2.32050052E-12, -9.24756224E+02,
                       4.72183634E+00]),
                NASA([605.96, 3000.00],
                     [ 2.87462882E+00,  2.17840991E-03, -1.18262921E-06,
                       2.86910493E-10, -2.53297146E-14, -8.19517838E+02,
                       7.69331810E+00])))

species(name='formic_acid',
        atoms='C:1 H:2 O:2',
        thermo=(NASA([10.00, 741.38],
                     [ 4.06855785E+00, -4.74562133E-03,  4.71797900E-05,
                      -6.07490052E-08,  2.51286794E-11, -4.66880837E+04,
                       6.53681035E+00]),
                NASA([741.38, 3000.00],
                     [ 1.13645847E+00,  1.74953124E-02, -1.08112403E-05,
                       3.08075326E-09, -3.34892658E-13, -4.64297918E+04,
                       1.86149484E+01])))

species(name='propene',
        atoms='C:3 H:6',
        thermo=(NASA([10.00, 519.53],
                     [ 3.98723879E+00,  4.72040503E-04,  6.51776229E-05,
                      -9.89891002E-08,  4.91141123E-11,  1.64741701E+03,
                       6.98071210E+00]),
                NASA([519.53, 3000.00],
                     [ 3.79893331E-01,  2.82457690E-02, -1.50108430E-05,
                       3.90894069E-09, -4.00521928E-13,  2.02224436E+03,
                       2.20218922E+01])))

species(name='aQOOHg',
        atoms='C:4 H:9 O:3',
        thermo=(NASA([10.00, 455.48],
                     [ 3.62522127E+00,  2.83222320E-02,  2.08527447E-04,
                      -5.67427418E-07,  4.35169138E-10, -2.61032893E+04,
                       1.26617758E+01]),
                NASA([455.48, 3000.00],
                     [ 5.13914202E+00,  5.96270859E-02, -4.14435328E-05,
                       1.34202375E-08, -1.63474553E-12, -2.67038456E+04,
                       1.46991116E+00])))

species(name='ibut_peroxyacid',
        atoms='C:4 H:8 O:3',
        thermo=(NASA([10.00, 1386.21],
                     [ 3.50995385E+00,  4.78670384E-02, -2.40781384E-05,
                       3.71046938E-09,  3.85442115E-13, -4.92137975E+04,
                       1.22017268E+01]),
                NASA([1386.21, 3000.00],
                     [ 1.24543146E+01,  3.02396862E-02, -1.38577031E-05,
                       3.05328904E-09, -2.63982457E-13, -5.24796808E+04,
                      -3.67061828E+01])))

species(name='HO2',
        atoms='H:1 O:2',
        thermo=(NASA([10.00, 891.11],
                     [ 4.02887004E+00, -1.75769289E-03,  1.08726004E-05,
                      -1.13812972E-08,  3.90113097E-12,  4.95165001E+02,
                       4.69302008E+00]),
                NASA([891.11, 3000.00],
                     [ 3.06571044E+00,  4.28505005E-03, -2.19325920E-06,
                       5.58882699E-10, -5.61246669E-14,  5.98557610E+02,
                       8.84564156E+00])))

species(name='CH3',
        atoms='C:1 H:3',
        thermo=(NASA([10.00, 616.77],
                     [ 3.98929952E+00,  5.45150461E-04,  9.01320092E-06,
                      -1.08320497E-08,  4.38985879E-12,  1.65859883E+04,
                       2.22446886E-01]),
                NASA([616.77, 3000.00],
                     [ 3.35928237E+00,  4.63117126E-03, -9.24365433E-07,
                      -9.02514624E-11,  3.56905106E-14,  1.66637014E+04,
                       2.95743732E+00])))

#-------------------------------------------------------------------------------
# Reaction data
#-------------------------------------------------------------------------------

# Reaction 1
chebyshev_reaction('aQOOH[O] (+ M) <=> aQOOHb (+ M)',
                   Tmin=180.0, Tmax=1500.0,
                   Pmin=(0.01, 'atm'), Pmax=(98.692, 'atm'),
                   coeffs=[[-4.94700e+00,  3.29200e+00, -4.02500e-01, -4.54900e-02,  1.33300e-02,  1.08700e-03, -3.11100e-03,  1.38900e-03],
                           [-2.32600e+00,  1.04600e+00,  4.99900e-01,  1.74700e-02, -1.82100e-02,  6.02200e-03,  3.16800e-03, -3.15000e-03],
                           [-3.48400e+00, -1.72900e-01, -2.92900e-02,  2.61700e-02,  9.40200e-03, -1.09100e-03,  1.51600e-03,  1.00300e-03],
                           [-1.80800e+00, -3.04900e-01, -1.04000e-01,  1.24900e-02,  7.64000e-03, -1.91600e-03, -4.97700e-04,  7.09300e-04],
                           [-7.96200e-01, -1.69800e-01, -7.24100e-02, -3.75100e-03,  5.70600e-03,  4.32300e-04, -9.39500e-04, -1.05800e-04],
                           [-2.84700e-01, -4.19500e-02, -3.25000e-02, -1.24100e-02, -1.58000e-03,  2.56800e-03,  2.01700e-04, -3.53500e-04],
                           [-8.31100e-02,  4.45300e-02,  2.51700e-03, -1.36900e-02, -3.76500e-03,  6.57100e-04,  9.97700e-04, -5.75600e-05],
                           [-1.90200e-02,  5.45000e-02,  1.36500e-02, -3.98800e-03, -3.76500e-03, -8.24800e-04,  3.84300e-04,  2.34400e-04],
                           [-3.07000e-03,  2.20700e-02,  1.44400e-02,  1.91500e-03, -1.13800e-03, -9.75100e-04, -4.24100e-04,  1.57700e-04],
                           [-1.57800e-02,  9.45500e-03,  2.87200e-03,  3.10700e-03,  8.90300e-04, -2.02000e-04, -4.49300e-04, -9.00000e-05]])

# Reaction 2
chebyshev_reaction('aQOOHg (+ M) <=> aQOOHb (+ M)',
                   Tmin=180.0, Tmax=1500.0,
                   Pmin=(0.01, 'atm'), Pmax=(98.692, 'atm'),
                   coeffs=[[-6.44100e+00,  2.40400e+00, -1.92200e-01, -1.15600e-01, -9.00200e-04,  1.13400e-02,  3.11200e-04, -1.55000e-03],
                           [-3.11800e+00,  2.66500e+00,  3.18800e-01,  1.63100e-02, -1.55100e-02, -6.07100e-03,  2.54000e-04,  5.72700e-04],
                           [-4.29300e+00, -4.15100e-01,  1.31500e-01,  1.36100e-01,  5.79400e-03, -1.30800e-02, -1.60900e-03,  1.86700e-03],
                           [-2.24600e+00, -7.33900e-01, -1.48300e-01,  7.18000e-02,  2.68300e-02, -3.22100e-03, -2.95000e-03, -1.30400e-04],
                           [-7.35500e-01, -2.87400e-01, -1.81800e-01, -3.03500e-02,  1.85100e-02,  9.75300e-03, -5.61100e-04, -1.75300e-03],
                           [-1.41100e-01,  3.52100e-02, -5.48400e-02, -5.74600e-02, -5.75500e-03,  8.35200e-03,  2.34100e-03, -5.96300e-04],
                           [-3.49100e-02,  1.07100e-01,  4.31800e-02, -2.16200e-02, -1.45400e-02, -7.43000e-04,  1.97200e-03,  8.08500e-04],
                           [-6.27400e-02,  4.42900e-02,  4.51700e-02,  1.28700e-02, -4.13500e-03, -4.86800e-03, -4.29900e-04,  8.29200e-04],
                           [-6.42200e-02, -1.70800e-02,  2.14000e-03,  1.39800e-02,  6.79200e-03, -1.56100e-03, -1.65700e-03, -1.11600e-04],
                           [-3.13200e-02, -2.55000e-02, -2.17700e-02, -2.20700e-03,  5.76800e-03,  2.38900e-03, -5.26800e-04, -6.54900e-04]])

# Reaction 3
chebyshev_reaction('aRO2 (+ M) <=> aQOOHb (+ M)',
                   Tmin=180.0, Tmax=1500.0,
                   Pmin=(0.01, 'atm'), Pmax=(98.692, 'atm'),
                   coeffs=[[-9.01600e+00,  2.10600e+00, -3.23600e-04, -7.17400e-02,  9.77100e-03,  1.17300e-02, -4.99500e-03, -8.73100e-04],
                           [ 3.12400e+00,  1.95800e+00,  5.06600e-02,  4.76100e-02, -1.08300e-02, -1.01200e-02,  9.26200e-03, -6.20300e-04],
                           [-3.30500e+00,  3.32100e-01, -1.77500e-02,  1.97400e-03,  2.23500e-02,  4.27300e-03, -6.79900e-03,  1.63500e-03],
                           [-2.20600e+00, -3.86300e-01, -1.91600e-02,  3.23400e-02, -8.21500e-03, -2.43600e-03,  3.15900e-03, -6.59600e-04],
                           [-1.01200e+00, -3.35200e-01, -6.58500e-02,  3.23400e-02,  8.71900e-03, -7.02000e-03, -1.88300e-03,  1.08800e-03],
                           [-2.69000e-01, -1.01000e-01, -7.99300e-02, -1.37000e-02,  1.39200e-02,  6.61300e-03, -2.35700e-03, -1.67100e-03],
                           [ 7.73200e-03,  5.64500e-02, -3.24100e-02, -3.35700e-02, -6.37700e-03,  6.98000e-03,  3.94400e-03, -6.20400e-04],
                           [ 2.88300e-02,  9.89400e-02,  2.22500e-02, -1.37600e-02, -1.40100e-02, -3.16300e-03,  2.07300e-03,  1.82900e-03],
                           [-7.79100e-03,  6.03700e-02,  3.46800e-02,  1.04700e-02, -1.84100e-03, -6.51600e-03, -2.91200e-03,  7.82200e-04],
                           [-4.58000e-02,  5.36200e-03,  2.03500e-02,  1.15500e-02,  5.83500e-03,  1.08200e-03, -2.49800e-03, -1.93700e-03]])

# Reaction 4
chebyshev_reaction('aadduct (+ M) <=> aQOOHb (+ M)',
                   Tmin=180.0, Tmax=1500.0,
                   Pmin=(0.01, 'atm'), Pmax=(98.692, 'atm'),
                   coeffs=[[-8.63300e+00,  1.58100e+00, -1.97200e-01, -6.05200e-02,  5.12800e-03,  4.30000e-03,  4.91500e-05, -3.81100e-04],
                           [ 1.50100e+00,  2.77000e+00,  2.36800e-01, -1.95500e-02, -1.19500e-02,  9.59100e-04,  9.99700e-04, -3.47100e-04],
                           [-3.82900e+00,  9.27100e-02,  4.66600e-02,  6.94300e-02,  1.57300e-02, -3.14100e-03, -1.65400e-03,  2.67100e-04],
                           [-2.38500e+00, -5.45800e-01, -8.56600e-02,  4.02300e-02,  1.24900e-02, -9.52900e-04, -3.95300e-04,  3.23900e-04],
                           [-9.82700e-01, -3.17200e-01, -1.11100e-01, -4.59800e-03,  5.54500e-03,  6.94600e-04, -1.00600e-04,  1.32400e-04],
                           [-2.21200e-01, -5.06000e-02, -6.56500e-02, -2.65000e-02, -2.74500e-03,  2.62000e-03,  7.99400e-04, -3.05900e-04],
                           [ 2.89900e-02,  8.08400e-02, -6.68900e-03, -1.88100e-02, -6.83000e-03,  7.49700e-04,  8.60900e-04, -6.31100e-06],
                           [ 3.36400e-02,  9.71600e-02,  2.59700e-02, -1.25700e-03, -3.54800e-03, -1.38200e-03, -3.32400e-04,  1.74300e-04],
                           [-1.43600e-02,  4.34600e-02,  2.76500e-02,  7.62400e-03,  9.70500e-04, -8.72700e-04, -7.51200e-04, -9.50800e-05],
                           [-4.78900e-02, -5.67000e-03,  9.79400e-03,  5.28800e-03,  2.64000e-03,  6.31000e-04, -2.60100e-04, -1.92200e-04]])

# Reaction 5
chebyshev_reaction('O2 + aR (+ M) <=> aQOOHb (+ M)',
                   Tmin=180.0, Tmax=1500.0,
                   Pmin=(0.01, 'atm'), Pmax=(98.692, 'atm'),
                   coeffs=[[-1.34400e+00,  6.00000e+00, -6.78500e-01, -4.09800e-01,  4.43100e-02,  6.22900e-02, -6.79200e-03, -1.33800e-02],
                           [-9.69400e-01, -2.68500e+00,  1.33200e+00,  3.41700e-01, -1.55300e-01, -7.23800e-02,  2.38600e-02,  1.63700e-02],
                           [-1.63500e+00, -3.76600e-01, -4.90700e-02,  1.66000e-01,  5.49400e-02, -2.26000e-02, -1.79300e-02,  3.28200e-03],
                           [-9.31000e-01, -2.99300e-01, -1.65900e-01,  4.24000e-02,  4.13600e-02,  4.38700e-03, -5.75400e-03, -3.42400e-03],
                           [-3.78000e-01, -1.30100e-01, -1.22900e-01, -1.85100e-02,  1.50600e-02,  9.08000e-03,  5.86100e-04, -2.48400e-03],
                           [-9.55100e-02,  4.89800e-03, -4.10100e-02, -3.28900e-02, -7.08100e-04,  5.59500e-03,  9.56400e-04, -1.42300e-04],
                           [-1.17500e-02,  5.74200e-02,  1.18700e-02, -1.83300e-02, -4.85600e-03,  5.18800e-04,  5.19500e-04,  5.37200e-04],
                           [-1.44800e-02,  4.66400e-02,  1.88000e-02,  2.49100e-03, -3.24400e-03, -1.39300e-03,  1.95400e-04,  2.20400e-05],
                           [-2.48300e-02,  1.00200e-02,  5.15700e-03,  9.44000e-03,  5.42000e-04, -5.45300e-04, -1.15900e-04, -2.69700e-04],
                           [-2.05500e-02, -1.55300e-02, -4.25200e-03,  2.46000e-03,  2.48200e-03,  6.25400e-04,  2.33400e-05, -1.60000e-04]])
#  aQOOHb(+M) <=> aQOOH[O](+M)                         1.000e+00 0.000     0.000
#      TCHEB/ 180.000   1500.000 /
#      PCHEB/ 0.010     98.692   /
#      CHEB/ 10 8/
#      CHEB/ -1.251e+01   3.292e+00    -4.025e-01   -4.549e-02   1.333e-02   /
#      CHEB/ 1.087e-03    -3.111e-03   1.389e-03    2.266e+00    1.046e+00   /
#      CHEB/ 4.999e-01    1.747e-02    -1.821e-02   6.022e-03    3.168e-03   /
#      CHEB/ -3.150e-03   -3.406e+00   -1.729e-01   -2.929e-02   2.617e-02   /
#      CHEB/ 9.402e-03    -1.091e-03   1.516e-03    1.003e-03    -1.762e+00  /
#      CHEB/ -3.049e-01   -1.040e-01   1.249e-02    7.640e-03    -1.916e-03  /
#      CHEB/ -4.977e-04   7.093e-04    -7.809e-01   -1.698e-01   -7.241e-02  /
#      CHEB/ -3.751e-03   5.706e-03    4.323e-04    -9.395e-04   -1.058e-04  /
#      CHEB/ -2.799e-01   -4.195e-02   -3.250e-02   -1.241e-02   -1.580e-03  /
#      CHEB/ 2.568e-03    2.017e-04    -3.535e-04   -8.130e-02   4.453e-02   /
#      CHEB/ 2.517e-03    -1.369e-02   -3.765e-03   6.571e-04    9.977e-04   /
#      CHEB/ -5.756e-05   -1.830e-02   5.450e-02    1.365e-02    -3.988e-03  /
#      CHEB/ -3.765e-03   -8.248e-04   3.843e-04    2.344e-04    -2.876e-03  /
#      CHEB/ 2.207e-02    1.444e-02    1.915e-03    -1.138e-03   -9.751e-04  /
#      CHEB/ -4.241e-04   1.577e-04    -1.578e-02   9.455e-03    2.872e-03   /
#      CHEB/ 3.107e-03    8.903e-04    -2.020e-04   -4.493e-04   -9.000e-05  /

# Reaction 6
chebyshev_reaction('aQOOHg (+ M) <=> aQOOH[O] (+ M)',
                   Tmin=180.0, Tmax=1500.0,
                   Pmin=(0.01, 'atm'), Pmax=(98.692, 'atm'),
                   coeffs=[[-4.57800e+00,  1.92000e+00, -2.99300e-01,  6.67200e-02, -3.76100e-02,  2.55600e-03,  3.82300e-03, -1.40400e-04],
                           [-2.51300e+00,  1.00900e+00,  3.09000e-01, -1.45900e-02,  4.66600e-02, -7.37900e-03, -6.07000e-03,  5.17400e-04],
                           [-4.35100e+00, -2.30200e-01, -2.16100e-02,  1.41300e-02,  7.78500e-03,  5.65800e-03,  1.06800e-03, -7.81000e-04],
                           [-2.01600e+00, -3.03400e-01, -1.25800e-01,  2.22500e-03,  2.72900e-04, -4.58900e-04,  1.43100e-03,  4.59400e-04],
                           [-7.58900e-01, -5.52100e-02, -1.05000e-01, -1.51200e-02,  3.37100e-03, -8.23700e-04, -2.99800e-04,  4.14100e-04],
                           [-2.50800e-01,  7.95900e-02, -2.85400e-02, -1.99300e-02, -3.02800e-03,  1.34700e-03, -4.20000e-04, -7.26600e-05],
                           [-1.14700e-01,  9.15300e-02,  2.17700e-02, -6.29500e-03, -4.61900e-03, -1.30000e-03,  5.12500e-04, -4.31600e-05],
                           [-7.47300e-02,  3.63500e-02,  1.67000e-02,  7.10600e-03, -6.84800e-04, -2.08500e-03, -2.20400e-04,  2.15100e-04],
                           [-3.27800e-02, -3.45100e-03, -2.40700e-03,  3.58600e-03,  2.93400e-03, -2.45100e-04, -8.53000e-04, -3.12600e-05],
                           [-4.02300e-03,  3.95200e-03, -9.74100e-03, -3.16100e-03,  1.02500e-03,  1.30600e-03, -2.50000e-04, -3.04300e-04]])

# Reaction 7
chebyshev_reaction('aRO2 (+ M) <=> aQOOH[O] (+ M)',
                   Tmin=180.0, Tmax=1500.0,
                   Pmin=(0.01, 'atm'), Pmax=(98.692, 'atm'),
                   coeffs=[[-8.03000e+00,  2.10500e+00, -1.68000e-02,  1.25200e-01, -2.51200e-02, -3.66700e-02, -1.87600e-02,  4.10900e-03],
                           [ 6.30800e+00,  6.88800e-01,  9.13200e-03, -7.11600e-02,  3.84800e-02,  3.92600e-02,  1.53100e-02, -8.78200e-03],
                           [-3.64300e+00,  1.39700e-01,  2.60200e-03, -2.20500e-02, -1.66300e-02, -4.75500e-03,  5.61400e-03,  6.60600e-03],
                           [-1.89900e+00, -3.47100e-02,  3.35000e-02,  3.60500e-03, -1.42200e-02, -1.22900e-02, -3.79300e-03,  2.34800e-03],
                           [-8.48900e-01, -8.10100e-02,  1.84800e-02,  1.59000e-02,  8.53400e-04, -5.06200e-03, -4.32900e-03, -1.75300e-03],
                           [-2.80700e-01, -6.05000e-02, -1.81100e-02,  5.49100e-03,  4.30200e-03,  3.16300e-03,  1.29800e-04, -1.16900e-03],
                           [-5.41700e-02,  8.30300e-03, -2.47100e-02, -1.27800e-02,  1.33800e-03,  3.56200e-03,  2.99400e-03,  5.50500e-04],
                           [ 3.61800e-03,  5.48700e-02, -9.37700e-03, -1.38400e-02, -4.83900e-03,  4.96700e-04,  2.13700e-03,  1.40800e-03],
                           [-4.26000e-03,  4.76200e-02,  1.34200e-02, -4.32900e-03, -5.03600e-03, -1.91400e-03, -2.47000e-04,  5.92400e-04],
                           [-3.11500e-02,  2.60400e-02,  1.41400e-02,  5.85200e-03, -7.38400e-04, -1.43500e-03, -1.24600e-03, -5.79200e-04]])

# Reaction 8
chebyshev_reaction('aadduct (+ M) <=> aQOOH[O] (+ M)',
                   Tmin=180.0, Tmax=1500.0,
                   Pmin=(0.01, 'atm'), Pmax=(98.692, 'atm'),
                   coeffs=[[-7.38500e+00,  1.84600e+00, -3.19200e-01,  2.08600e-03, -2.65100e-02, -4.04100e-04,  2.29800e-03,  1.65700e-03],
                           [ 4.15700e+00,  8.83000e-01,  2.28900e-01,  1.03800e-02,  2.43600e-02, -1.68300e-04, -3.27800e-03, -1.87200e-03],
                           [-4.04300e+00,  8.67800e-03, -6.53700e-04,  3.89500e-03,  5.69700e-03,  2.15800e-03,  1.09000e-03,  2.79600e-05],
                           [-2.06900e+00, -1.80000e-01, -3.87600e-02, -1.09900e-02, -2.40700e-03,  5.40700e-04,  7.31600e-04,  3.95300e-04],
                           [-8.83600e-01, -1.43300e-01, -3.45500e-02, -8.13300e-03, -2.29800e-03, -6.85400e-04, -1.67900e-05,  1.41900e-04],
                           [-2.61000e-01, -5.76500e-02, -2.77000e-02, -3.86000e-03, -1.89600e-03,  1.01000e-04, -3.26900e-04, -2.43500e-05],
                           [-3.00100e-02,  3.27900e-02, -8.30700e-03, -5.79100e-03,  3.16800e-04, -4.76700e-04,  1.02500e-05, -1.30500e-04],
                           [ 1.37800e-02,  6.78400e-02,  5.92600e-03, -2.04200e-03, -3.23500e-04, -1.23800e-04,  7.22200e-06, -5.57400e-05],
                           [-3.29200e-03,  4.35600e-02,  1.65900e-02,  1.51900e-03, -6.37700e-04,  1.31200e-05, -5.94200e-05,  3.81500e-05],
                           [-3.45500e-02,  1.71600e-02,  9.40100e-03,  4.31600e-03, -2.28300e-04, -5.34200e-05,  8.49800e-06,  2.37200e-05]])

# Reaction 9
chebyshev_reaction('O2 + aR (+ M) <=> aQOOH[O] (+ M)',
                   Tmin=180.0, Tmax=1500.0,
                   Pmin=(0.01, 'atm'), Pmax=(98.692, 'atm'),
                   coeffs=[[-2.83000e+00,  5.92500e+00, -8.49100e-02, -2.62000e-01,  3.39000e-02,  5.99800e-02,  7.67000e-03, -9.55300e-03],
                           [-8.82300e-01, -2.67100e+00,  5.18500e-01,  1.64300e-01, -7.70900e-02, -4.83200e-02, -3.94900e-03,  9.80800e-03],
                           [-1.17300e+00, -4.49600e-01,  5.42900e-02,  1.34200e-01, -2.38400e-02, -3.07200e-02,  2.72100e-04,  2.54100e-03],
                           [-6.77900e-01, -2.55700e-01, -4.97600e-02,  8.60300e-02,  1.67800e-02, -5.91700e-03, -1.84600e-03, -2.06100e-03],
                           [-4.07600e-01, -1.22500e-01, -9.10900e-02,  2.90300e-02,  3.65900e-02, -7.62200e-03, -2.60600e-03,  4.48100e-03],
                           [-2.09300e-01, -4.32100e-02, -7.53700e-02, -7.68200e-03,  2.41400e-02,  2.93800e-04, -5.57900e-03,  1.32400e-03],
                           [-6.85400e-02, -6.52800e-03, -3.15600e-02, -2.86600e-02,  9.45300e-03,  8.08500e-03, -6.60200e-03, -1.69500e-03],
                           [ 1.55800e-03,  3.54600e-02, -2.64600e-03, -2.33100e-02, -7.02200e-04,  7.76600e-03, -2.73300e-03, -3.44600e-03],
                           [ 1.85600e-02,  4.34600e-02,  8.27500e-03, -6.85300e-03, -6.21000e-03,  5.35000e-03,  1.76700e-03, -3.54600e-03],
                           [ 7.68400e-03,  2.79800e-02,  1.19800e-02,  1.99300e-03, -4.59800e-03,  1.44900e-03,  3.38300e-03, -1.50600e-03]])
#  aQOOHb(+M) <=> aQOOHg(+M)                           1.000e+00 0.000     0.000
#      TCHEB/ 180.000   1500.000 /
#      PCHEB/ 0.010     98.692   /
#      CHEB/ 10 8/
#      CHEB/ -1.191e+01   2.404e+00    -1.922e-01   -1.156e-01   -9.002e-04  /
#      CHEB/ 1.134e-02    3.112e-04    -1.550e-03   -2.207e-02   2.665e+00   /
#      CHEB/ 3.188e-01    1.631e-02    -1.551e-02   -6.071e-03   2.540e-04   /
#      CHEB/ 5.727e-04    -4.070e+00   -4.151e-01   1.315e-01    1.361e-01   /
#      CHEB/ 5.794e-03    -1.308e-02   -1.609e-03   1.867e-03    -2.152e+00  /
#      CHEB/ -7.339e-01   -1.483e-01   7.180e-02    2.683e-02    -3.221e-03  /
#      CHEB/ -2.950e-03   -1.304e-04   -7.073e-01   -2.874e-01   -1.818e-01  /
#      CHEB/ -3.035e-02   1.851e-02    9.753e-03    -5.611e-04   -1.753e-03  /
#      CHEB/ -1.333e-01   3.521e-02    -5.484e-02   -5.746e-02   -5.755e-03  /
#      CHEB/ 8.352e-03    2.341e-03    -5.963e-04   -3.240e-02   1.071e-01   /
#      CHEB/ 4.318e-02    -2.162e-02   -1.454e-02   -7.430e-04   1.972e-03   /
#      CHEB/ 8.085e-04    -6.202e-02   4.429e-02    4.517e-02    1.287e-02   /
#      CHEB/ -4.135e-03   -4.868e-03   -4.299e-04   8.292e-04    -6.420e-02  /
#      CHEB/ -1.708e-02   2.140e-03    1.398e-02    6.792e-03    -1.561e-03  /
#      CHEB/ -1.657e-03   -1.116e-04   -3.146e-02   -2.550e-02   -2.177e-02  /
#      CHEB/ -2.207e-03   5.768e-03    2.389e-03    -5.268e-04   -6.549e-04  /
#  aQOOH[O](+M) <=> aQOOHg(+M)                         1.000e+00 0.000     0.000
#      TCHEB/ 180.000   1500.000 /
#      PCHEB/ 0.010     98.692   /
#      CHEB/ 10 8/
#      CHEB/ -2.482e+00   1.920e+00    -2.993e-01   6.672e-02    -3.761e-02  /
#      CHEB/ 2.556e-03    3.823e-03    -1.404e-04   -4.009e+00   1.009e+00   /
#      CHEB/ 3.090e-01    -1.459e-02   4.666e-02    -7.379e-03   -6.070e-03  /
#      CHEB/ 5.174e-04    -4.206e+00   -2.302e-01   -2.161e-02   1.413e-02   /
#      CHEB/ 7.785e-03    5.658e-03    1.068e-03    -7.810e-04   -1.968e+00  /
#      CHEB/ -3.034e-01   -1.258e-01   2.225e-03    2.729e-04    -4.589e-04  /
#      CHEB/ 1.431e-03    4.594e-04    -7.461e-01   -5.521e-02   -1.050e-01  /
#      CHEB/ -1.512e-02   3.371e-03    -8.237e-04   -2.998e-04   4.141e-04   /