units(length='cm', time='s', quantity='mol', act_energy='kcal/mol')

ideal_gas(name='gas',
          elements="H D T C Ci O Oi N Ne Ar He Si S F Cl Br I X",
          species="""aOOHbalkene      OH               ibutanal
                     aR               performic_acid   disub_c4ether
                     aQOOHb           H                aadduct
                     trisub_epoxy     ibutenol         aQOOH[O]
                     ipropyl          aRO2             O2
                     formic_acid      propene          aQOOHg
                     ibut_peroxyacid  HO2              CH3""",
          reactions='all',
          initial_state=state(temperature=300.0, pressure=OneAtm))

#-------------------------------------------------------------------------------
# Element data
#-------------------------------------------------------------------------------

element(symbol='Ci', atomic_mass=13.003)
element(symbol='D', atomic_mass=2.014)
element(symbol='Oi', atomic_mass=18.0)
element(symbol='T', atomic_mass=3.016)
element(symbol='X', atomic_mass=195.083)
#-------------------------------------------------------------------------------
# Species data
#-------------------------------------------------------------------------------

species(name='aOOHbalkene',
        atoms='C:3 H:6 O:3',
        thermo=(NASA([10.00, 497.41],
                     [ 3.76691735E+00,  1.51417956E-02,  1.85499431E-04,
                      -4.61303214E-07,  3.27678941E-10, -2.74641504E+04,
                       1.09903968E+01]),
                NASA([497.41, 3000.00],
                     [ 6.20882781E+00,  4.08866173E-02, -2.89934946E-05,
                       9.60428979E-09, -1.19355432E-12, -2.82684798E+04,
                      -4.72842811E+00])))

species(name='OH',
        atoms='H:1 O:1',
        thermo=(NASA([10.00, 984.14],
                     [ 3.49686242E+00,  1.83973160E-04, -9.97634499E-07,
                       1.56942783E-09, -6.10128175E-13,  3.41673934E+03,
                       1.48093120E+00]),
                NASA([984.14, 3000.00],
                     [ 3.45221464E+00, -2.95124034E-04,  7.39418622E-07,
                      -2.89309866E-10,  3.53041498E-14,  3.45751599E+03,
                       1.85813897E+00])))

species(name='ibutanal',
        atoms='C:4 H:8 O:1',
        thermo=(NASA([10.00, 683.88],
                     [ 3.57157346E+00,  3.36936906E-02, -1.78475021E-05,
                       1.31946716E-08, -7.58008388E-12, -2.73721700E+04,
                       1.05595084E+01]),
                NASA([683.88, 3000.00],
                     [ 1.29043622E+00,  4.14804229E-02, -2.27411206E-05,
                       6.08619500E-09, -6.38995128E-13, -2.69302509E+04,
                       2.16477430E+01])))

species(name='aR',
        atoms='C:4 H:9 O:1',
        thermo=(NASA([10.00, 455.22],
                     [ 3.59625500E+00,  3.38947981E-02,  7.37257079E-06,
                      -3.99275335E-08,  2.49019944E-11, -1.28519229E+04,
                       1.18269265E+01]),
                NASA([455.22, 3000.00],
                     [ 2.49586309E+00,  4.35639890E-02, -2.44887770E-05,
                       6.73363769E-09, -7.23862433E-13, -1.27517398E+04,
                       1.62696907E+01])))

species(name='performic_acid',
        atoms='C:1 H:2 O:3',
        thermo=(NASA([10.00, 590.95],
                     [ 3.92633851E+00,  4.24517168E-03,  6.71106764E-05,
                      -1.36545385E-07,  8.03337864E-11, -3.63028176E+04,
                       8.06485813E+00]),
                NASA([590.95, 3000.00],
                     [ 4.39992934E+00,  1.85411415E-02, -1.36005501E-05,
                       4.62292431E-09, -5.88463603E-13, -3.66643888E+04,
                       3.44353230E+00])))

species(name='disub_c4ether',
        atoms='C:4 H:8 O:2',
        thermo=(NASA([10.00, 413.50],
                     [ 3.78241323E+00,  1.89501763E-02,  8.65302396E-05,
                      -1.80580575E-07,  1.13656264E-10, -3.89302356E+04,
                       1.09982450E+01]),
                NASA([413.50, 3000.00],
                     [ 4.29420885E-01,  5.13851903E-02, -3.11292293E-05,
                       9.11498284E-09, -1.03192718E-12, -3.86529412E+04,
                       2.42134976E+01])))

species(name='aQOOHb',
        atoms='C:4 H:9 O:3',
        thermo=(NASA([10.00, 412.78],
                     [ 3.15498836E+00,  8.55068303E-02, -2.35307993E-04,
                       4.71983261E-07, -3.62709267E-10, -2.81493937E+04,
                       1.52522123E+01]),
                NASA([412.78, 3000.00],
                     [ 4.18099845E+00,  5.26168288E-02, -3.23998410E-05,
                       9.59389339E-09, -1.09464519E-12, -2.80385988E+04,
                       1.35782328E+01])))

species(name='H',
        atoms='H:1',
        thermo=(NASA([10.00, 794.01],
                     [ 2.50000000E+00,  1.99051163E-15, -1.19089508E-17,
                       2.10805655E-20, -1.11017699E-23,  2.54725594E+04,
                      -4.61279342E-01]),
                NASA([794.01, 3000.00],
                     [ 2.50000000E+00,  1.52667235E-14, -1.58445285E-17,
                       6.63088600E-21, -9.62111674E-25,  2.54725594E+04,
                      -4.61279342E-01])))

species(name='aadduct',
        atoms='C:4 H:9 O:3',
        thermo=(NASA([10.00, 449.84],
                     [ 3.06901904E+00,  9.20724491E-02, -2.68085092E-04,
                       5.15249897E-07, -3.68046586E-10, -2.98136518E+04,
                       1.46591735E+01]),
                NASA([449.84, 3000.00],
                     [ 4.11210745E+00,  5.16955724E-02, -2.97401041E-05,
                       8.32758939E-09, -9.08861448E-13, -2.95928108E+04,
                       1.39578825E+01])))

species(name='trisub_epoxy',
        atoms='C:4 H:8 O:2',
        thermo=(NASA([10.00, 209.19],
                     [ 3.75295042E+00,  2.37546930E-02,  1.26610110E-04,
                      -4.78364365E-07,  5.79468168E-10, -4.20616803E+04,
                       1.12739684E+01]),
                NASA([209.19, 3000.00],
                     [ 2.64185254E+00,  4.50006531E-02, -2.57361066E-05,
                       7.15266054E-09, -7.72980731E-13, -4.20151947E+04,
                       1.48960343E+01])))

species(name='ibutenol',
        atoms='C:4 H:8 O:1',
        thermo=(NASA([10.00, 135.97],
                     [ 3.95714996E+00,  5.72646980E-03,  4.63611760E-04,
                      -3.04137514E-06,  6.85019471E-09, -2.35137977E+04,
                       8.21931848E+00]),
                NASA([135.97, 3000.00],
                     [ 3.32467612E+00,  3.69033556E-02, -1.89960416E-05,
                       4.73417677E-09, -4.59705291E-13, -2.35082190E+04,
                       9.58133237E+00])))

species(name='aQOOH[O]',
        atoms='C:4 H:9 O:3',
        thermo=(NASA([10.00, 488.36],
                     [ 3.54559533E+00,  3.89536133E-02,  8.47689703E-05,
                      -2.45147486E-07,  1.76157259E-10, -2.29199755E+04,
                       1.34685910E+01]),
                NASA([488.36, 3000.00],
                     [ 3.94214913E+00,  5.71928314E-02, -3.72516212E-05,
                       1.15209013E-08, -1.35808341E-12, -2.32149364E+04,
                       9.21628964E+00])))

species(name='ipropyl',
        atoms='C:3 H:7',
        thermo=(NASA([10.00, 421.76],
                     [ 3.73943775E+00,  3.10070157E-02, -1.51196908E-04,
                       4.35367329E-07, -3.85565052E-10,  9.49213457E+03,
                       7.79448918E+00]),
                NASA([421.76, 3000.00],
                     [-4.74526725E-01,  3.20862468E-02, -1.67340747E-05,
                       4.21365136E-09, -4.13155573E-13,  1.01934458E+04,
                       2.85865912E+01])))

species(name='aRO2',
        atoms='C:4 H:9 O:3',
        thermo=(NASA([10.00, 670.36],
                     [ 3.45405325E+00,  4.74751311E-02,  9.77507759E-06,
                      -6.31019603E-08,  3.75500067E-11, -3.15455872E+04,
                       1.39284976E+01]),
                NASA([670.36, 3000.00],
                     [ 5.04137652E+00,  5.19952978E-02, -3.16472789E-05,
                       9.22798587E-09, -1.03598915E-12, -3.20727797E+04,
                       4.56056770E+00])))

species(name='O2',
        atoms='O:2',
        thermo=(NASA([10.00, 605.96],
                     [ 3.50743498E+00, -4.43860349E-04,  1.45938058E-06,
                       1.61509333E-09, -2.32050052E-12, -9.24756224E+02,
                       4.72183634E+00]),
                NASA([605.96, 3000.00],
                     [ 2.87462882E+00,  2.17840991E-03, -1.18262921E-06,
                       2.86910493E-10, -2.53297146E-14, -8.19517838E+02,
                       7.69331810E+00])))

species(name='formic_acid',
        atoms='C:1 H:2 O:2',
        thermo=(NASA([10.00, 741.38],
                     [ 4.06855785E+00, -4.74562133E-03,  4.71797900E-05,
                      -6.07490052E-08,  2.51286794E-11, -4.66880837E+04,
                       6.53681035E+00]),
                NASA([741.38, 3000.00],
                     [ 1.13645847E+00,  1.74953124E-02, -1.08112403E-05,
                       3.08075326E-09, -3.34892658E-13, -4.64297918E+04,
                       1.86149484E+01])))

species(name='propene',
        atoms='C:3 H:6',
        thermo=(NASA([10.00, 519.53],
                     [ 3.98723879E+00,  4.72040503E-04,  6.51776229E-05,
                      -9.89891002E-08,  4.91141123E-11,  2.54960957E+03,
                       6.98071210E+00]),
                NASA([519.53, 3000.00],
                     [ 3.79893331E-01,  2.82457690E-02, -1.50108430E-05,
                       3.90894069E-09, -4.00521928E-13,  2.92443692E+03,
                       2.20218922E+01])))

species(name='aQOOHg',
        atoms='C:4 H:9 O:3',
        thermo=(NASA([10.00, 455.48],
                     [ 3.62522127E+00,  2.83222320E-02,  2.08527447E-04,
                      -5.67427418E-07,  4.35169138E-10, -2.59057678E+04,
                       1.26617758E+01]),
                NASA([455.48, 3000.00],
                     [ 5.13914202E+00,  5.96270859E-02, -4.14435328E-05,
                       1.34202375E-08, -1.63474553E-12, -2.65063241E+04,
                       1.46991116E+00])))

species(name='ibut_peroxyacid',
        atoms='C:4 H:8 O:3',
        thermo=(NASA([10.00, 1386.21],
                     [ 3.50995385E+00,  4.78670384E-02, -2.40781384E-05,
                       3.71046938E-09,  3.85442115E-13, -4.97588102E+04,
                       1.22017268E+01]),
                NASA([1386.21, 3000.00],
                     [ 1.24543146E+01,  3.02396862E-02, -1.38577031E-05,
                       3.05328904E-09, -2.63982457E-13, -5.30246935E+04,
                      -3.67061828E+01])))

species(name='HO2',
        atoms='H:1 O:2',
        thermo=(NASA([10.00, 891.11],
                     [ 4.02887004E+00, -1.75769289E-03,  1.08726004E-05,
                      -1.13812972E-08,  3.90113097E-12,  4.95165001E+02,
                       4.69302008E+00]),
                NASA([891.11, 3000.00],
                     [ 3.06571044E+00,  4.28505005E-03, -2.19325920E-06,
                       5.58882699E-10, -5.61246669E-14,  5.98557610E+02,
                       8.84564156E+00])))

species(name='CH3',
        atoms='C:1 H:3',
        thermo=(NASA([10.00, 616.77],
                     [ 3.98929952E+00,  5.45150461E-04,  9.01320092E-06,
                      -1.08320497E-08,  4.38985879E-12,  1.65859883E+04,
                       2.22446886E-01]),
                NASA([616.77, 3000.00],
                     [ 3.35928237E+00,  4.63117126E-03, -9.24365433E-07,
                      -9.02514624E-11,  3.56905106E-14,  1.66637014E+04,
                       2.95743732E+00])))

#-------------------------------------------------------------------------------
# Reaction data
#-------------------------------------------------------------------------------

# Reaction 1
chebyshev_reaction('aQOOH[O] (+ M) <=> aQOOHb (+ M)',
                   Tmin=180.0, Tmax=1500.0,
                   Pmin=(0.01, 'atm'), Pmax=(98.692, 'atm'),
                   coeffs=[[-5.15600e+00,  5.46200e+00, -6.62500e-01, -1.62800e-01,  8.19000e-02,  5.08600e-03, -1.47900e-02,  1.87600e-03],
                           [-3.77500e+00, -7.25300e-01,  8.47900e-01,  7.81200e-02, -1.07900e-01,  9.58200e-03,  1.84400e-02, -4.13100e-03],
                           [-3.35700e+00, -4.34000e-01, -6.23600e-02,  5.79400e-02, -2.13000e-03, -1.15900e-02,  2.05800e-03,  2.31500e-03],
                           [-1.57800e+00, -2.22800e-01, -9.99100e-02, -2.35700e-03,  4.77600e-03, -2.52500e-03, -7.92100e-04,  6.20200e-04],
                           [-6.44200e-01, -2.56900e-02, -3.46000e-02, -1.88500e-02,  2.29400e-03, -1.28300e-03, -8.60000e-04,  6.83100e-04],
                           [-2.30400e-01,  4.30500e-02,  3.15000e-03,  5.27600e-04, -3.97400e-03, -7.73300e-04, -4.54300e-04, -1.17000e-04],
                           [-8.41800e-02,  4.03100e-02,  1.13900e-02,  8.80200e-03, -2.65000e-04, -1.04000e-03, -4.45600e-04, -2.09600e-04],
                           [-4.26800e-02,  9.73400e-03,  1.35000e-02, -3.41100e-04,  4.91100e-03,  2.75400e-04, -9.70200e-04,  1.75000e-04],
                           [-2.74900e-02, -4.45100e-03, -9.25400e-03,  6.02000e-03, -2.71600e-04,  6.61800e-04,  6.64600e-04, -3.69500e-04],
                           [-2.37700e-02, -1.22100e-02,  1.87600e-03, -5.32500e-03,  1.55300e-03,  1.24200e-04, -3.20000e-05,  2.19500e-04]])

# Reaction 2
chebyshev_reaction('aQOOHg (+ M) <=> aQOOHb (+ M)',
                   Tmin=180.0, Tmax=1500.0,
                   Pmin=(0.01, 'atm'), Pmax=(98.692, 'atm'),
                   coeffs=[[-6.24200e+00,  3.15100e+00, -1.69500e-01, -8.17800e-02, -7.27000e-03,  4.73500e-03,  2.09300e-04, -4.22400e-04],
                           [-4.55400e+00,  1.82700e+00,  3.70600e-01,  2.58800e-02, -1.41400e-02, -3.12300e-03,  1.56100e-03,  5.69200e-04],
                           [-3.86500e+00, -7.54500e-01, -3.23900e-02,  1.13700e-01,  2.15300e-02, -7.44600e-03, -3.08400e-03,  1.68100e-04],
                           [-1.80600e+00, -6.54700e-01, -2.36700e-01,  2.81700e-03,  2.69900e-02,  5.70800e-03, -1.11800e-03, -7.50200e-04],
                           [-5.72800e-01, -1.23300e-01, -1.28100e-01, -5.59000e-02, -4.40100e-03,  5.72300e-03,  2.03800e-03,  1.87000e-04],
                           [-1.45900e-01,  9.53900e-02,  1.38700e-02, -2.56600e-02, -1.52500e-02, -2.55200e-03,  1.21000e-03,  7.42500e-04],
                           [-6.75200e-02,  7.61400e-02,  4.54800e-02,  1.13800e-02, -3.24800e-03, -4.50000e-03, -1.16300e-03,  2.52400e-04],
                           [-5.06600e-02, -2.24700e-03,  1.45700e-02,  1.29900e-02,  6.49100e-03,  1.51800e-04, -1.44700e-03, -5.25600e-04],
                           [-3.25700e-02, -2.41800e-02, -1.26900e-02, -1.43700e-03,  3.92100e-03,  2.85500e-03,  2.45700e-04, -4.43200e-04],
                           [-2.01300e-02, -4.06400e-03, -8.26400e-03, -7.37100e-03, -1.57700e-03,  7.40600e-04,  9.85900e-04,  1.89400e-04]])

# Reaction 3
chebyshev_reaction('aRO2 (+ M) <=> aQOOHb (+ M)',
                   Tmin=180.0, Tmax=1500.0,
                   Pmin=(0.01, 'atm'), Pmax=(98.692, 'atm'),
                   coeffs=[[-7.96700e+00,  2.82600e+00,  1.09500e-01,  3.06600e-03, -1.32000e-02, -1.08700e-03,  1.88800e-03,  1.79200e-04],
                           [-4.89400e-01,  5.86200e-01,  8.75900e-02,  1.01200e-01,  4.63900e-02,  7.37100e-04, -6.95600e-03, -2.04200e-03],
                           [-3.34600e+00,  9.97100e-02, -1.07100e-01, -4.00600e-02, -3.83700e-03,  5.00400e-03,  3.72500e-03,  4.78400e-04],
                           [-1.53400e+00, -3.07500e-02, -1.30200e-01, -5.55800e-02, -1.09200e-02,  1.28500e-03,  1.36600e-03,  3.77600e-04],
                           [-5.84500e-01,  1.05600e-02, -6.50500e-02, -2.75300e-02, -6.26400e-03, -6.34400e-04,  1.33200e-04,  2.56100e-04],
                           [-2.05000e-01,  4.89300e-02, -5.68300e-03, -4.00300e-04, -1.19700e-03, -1.50300e-03, -3.82900e-04,  3.26800e-04],
                           [-6.56900e-02,  2.97300e-02,  1.30300e-02,  7.06000e-03,  7.74500e-04,  4.85600e-04,  4.62300e-04, -3.07600e-04],
                           [-2.90600e-02, -6.61300e-04,  5.15600e-03,  7.16800e-03,  2.60100e-03,  2.23700e-04, -9.83600e-05,  3.48100e-06],
                           [-3.30700e-02,  5.64000e-03, -3.90300e-03, -1.33300e-03,  1.58500e-03,  1.28200e-03, -6.65900e-05, -2.07600e-04],
                           [-3.30100e-02,  2.24500e-03, -6.92400e-04, -6.29800e-04, -4.35300e-04, -4.16500e-04, -3.09800e-04,  1.32400e-04]])

# Reaction 4
chebyshev_reaction('aadduct (+ M) <=> aQOOHb (+ M)',
                   Tmin=180.0, Tmax=1500.0,
                   Pmin=(0.01, 'atm'), Pmax=(98.692, 'atm'),
                   coeffs=[[-1.06100e+01,  2.90500e+00,  1.52300e-01,  1.51100e-02, -1.20000e-02, -1.80900e-03,  1.53100e-03, -1.69600e-05],
                           [-3.42800e+00,  3.97800e-01, -3.58000e-02,  3.73100e-02,  2.54600e-02, -2.18000e-03, -5.67500e-03, -1.19900e-03],
                           [-3.98700e+00,  7.58600e-02, -1.23000e-01, -5.02200e-02, -4.84200e-03,  7.16000e-03,  5.53600e-03,  1.04100e-03],
                           [-1.88300e+00,  7.69300e-03, -1.09500e-01, -5.11200e-02, -9.68100e-03,  1.99200e-03,  1.82200e-03,  3.58800e-04],
                           [-7.20300e-01,  2.93600e-02, -5.24100e-02, -2.35300e-02, -4.99100e-03, -7.39900e-04, -1.85000e-04,  2.50400e-05],
                           [-3.75500e-01,  6.53100e-02,  3.80800e-03,  1.66700e-03, -9.93800e-04, -1.83000e-03, -5.80200e-04,  2.26700e-04],
                           [-1.10900e-01,  3.59000e-02,  1.62700e-02,  6.99100e-03,  4.17300e-04,  1.69900e-04,  3.69200e-04, -3.29000e-04],
                           [-2.07900e-02, -4.65700e-03,  4.50100e-03,  7.47800e-03,  2.98200e-03,  8.73300e-05, -2.81200e-04, -5.18400e-05],
                           [-9.91100e-02,  9.13500e-03, -2.79000e-03, -1.68200e-03,  1.41300e-03,  1.35600e-03,  7.87400e-05, -1.61600e-04],
                           [-2.33300e-02, -1.41700e-03, -2.80000e-03, -1.46900e-03, -5.69000e-04, -4.06400e-04, -2.76100e-04,  1.47000e-04]])

# Reaction 5
chebyshev_reaction('O2 + aR (+ M) <=> aQOOHb (+ M)',
                   Tmin=180.0, Tmax=1500.0,
                   Pmin=(0.01, 'atm'), Pmax=(98.692, 'atm'),
                   coeffs=[[-2.22200e+00,  1.02500e+01,  5.72500e-02, -7.47600e-01, -1.37100e-01,  7.54000e-02,  5.02600e-02, -1.46200e-02],
                           [ 3.74200e-01, -5.98900e+00,  1.14400e+00,  8.41200e-01,  2.45400e-03, -1.38200e-01, -4.08500e-02,  2.83900e-02],
                           [-1.45900e+00, -7.86400e-01, -2.75000e-01,  1.24900e-01,  8.46700e-02,  2.22500e-02, -2.23300e-02, -7.93700e-03],
                           [-7.94600e-01, -2.56200e-01, -2.28800e-01, -2.19200e-02,  3.13100e-02,  1.33900e-02,  2.76800e-03, -5.79100e-03],
                           [-3.25800e-01, -2.04400e-02, -9.89800e-02, -3.92000e-02,  6.51700e-03,  2.08000e-04,  2.95400e-03,  9.53400e-04],
                           [-1.03400e-01,  4.17900e-02, -1.41500e-02, -1.74700e-02, -1.35700e-03, -2.53400e-03,  1.04800e-03,  1.04700e-03],
                           [-3.34500e-02,  3.71600e-02,  1.02600e-02,  3.42900e-03, -4.04700e-03,  5.15800e-04,  1.30200e-05, -5.78700e-04],
                           [-2.36300e-03, -5.21300e-03,  1.32900e-02,  3.46800e-03, -2.56200e-03,  4.11300e-03, -1.24500e-03, -4.81600e-04],
                           [-7.61000e-03, -1.33600e-02,  4.52400e-03, -2.96400e-03,  1.31400e-03,  1.31700e-03, -1.02900e-04,  6.22700e-05],
                           [-2.10500e-02, -2.42600e-03, -4.35700e-03, -3.76200e-03,  2.12600e-03, -1.45700e-03,  9.79300e-04,  6.51600e-06]])
#  aQOOHb(+M) <=> aQOOH[O](+M)                         1.000e+00 0.000     0.000
#      TCHEB/ 180.000   1500.000 /
#      PCHEB/ 0.010     98.692   /
#      CHEB/ 10 8/
#      CHEB/ -1.371e+01   5.462e+00    -6.625e-01   -1.628e-01   8.190e-02   /
#      CHEB/ 5.086e-03    -1.479e-02   1.876e-03    1.598e+00    -7.253e-01  /
#      CHEB/ 8.479e-01    7.812e-02    -1.079e-01   9.582e-03    1.844e-02   /
#      CHEB/ -4.131e-03   -3.279e+00   -4.340e-01   -6.236e-02   5.794e-02   /
#      CHEB/ -2.130e-03   -1.159e-02   2.058e-03    2.315e-03    -1.532e+00  /
#      CHEB/ -2.228e-01   -9.991e-02   -2.357e-03   4.776e-03    -2.525e-03  /
#      CHEB/ -7.921e-04   6.202e-04    -6.289e-01   -2.569e-02   -3.460e-02  /
#      CHEB/ -1.885e-02   2.294e-03    -1.283e-03   -8.600e-04   6.831e-04   /
#      CHEB/ -2.256e-01   4.305e-02    3.150e-03    5.276e-04    -3.974e-03  /
#      CHEB/ -7.733e-04   -4.543e-04   -1.170e-04   -8.237e-02   4.031e-02   /
#      CHEB/ 1.139e-02    8.802e-03    -2.650e-04   -1.040e-03   -4.456e-04  /
#      CHEB/ -2.096e-04   -4.196e-02   9.734e-03    1.350e-02    -3.411e-04  /
#      CHEB/ 4.911e-03    2.754e-04    -9.702e-04   1.750e-04    -2.730e-02  /
#      CHEB/ -4.451e-03   -9.254e-03   6.020e-03    -2.716e-04   6.618e-04   /
#      CHEB/ 6.646e-04    -3.695e-04   -2.376e-02   -1.221e-02   1.876e-03   /
#      CHEB/ -5.325e-03   1.553e-03    1.242e-04    -3.200e-05   2.195e-04   /

# Reaction 6
chebyshev_reaction('aQOOHg (+ M) <=> aQOOH[O] (+ M)',
                   Tmin=180.0, Tmax=1500.0,
                   Pmin=(0.01, 'atm'), Pmax=(98.692, 'atm'),
                   coeffs=[[-6.63500e+00,  3.41900e+00, -6.09800e-01,  1.55800e-01, -2.26700e-02, -9.98600e-03,  6.84000e-03, -2.44000e-03],
                           [-2.90900e+00,  3.82200e-01,  5.94500e-01, -1.93200e-01,  3.00200e-02,  2.15600e-02, -8.57300e-03,  2.69400e-04],
                           [-4.20800e+00, -2.60400e-01, -7.50300e-02, -2.96800e-03,  2.96900e-03,  1.21400e-03,  6.76100e-05,  2.95300e-04],
                           [-1.79100e+00, -1.63000e-01, -1.64600e-01, -6.67400e-03,  7.41400e-03, -2.81400e-03, -6.93200e-04,  7.96200e-04],
                           [-5.77500e-01, -1.09500e-02, -2.84100e-02, -3.41700e-02,  2.41900e-04,  8.55200e-04, -5.28700e-04,  6.75700e-04],
                           [-2.22900e-01,  1.35900e-01,  3.77900e-03,  5.09300e-03, -8.96400e-03, -2.90400e-03,  1.91700e-03, -5.89900e-05],
                           [-1.22800e-01,  7.71300e-02,  1.34600e-02,  2.33400e-02, -1.50700e-03, -4.19800e-03,  6.77400e-04, -5.97800e-05],
                           [-2.83900e-02, -8.23200e-02,  3.68300e-02,  4.49100e-03,  3.63100e-03,  2.05400e-03, -1.51000e-03, -2.21800e-04],
                           [-6.17100e-02,  7.07500e-03, -2.74500e-02,  2.27300e-03,  2.45100e-03,  1.23600e-03,  9.73500e-04, -5.77000e-04],
                           [ 1.09300e-02, -4.26200e-02,  1.29700e-02, -1.12100e-02, -1.84800e-03,  1.63000e-03,  1.11700e-04,  3.12800e-04]])

# Reaction 7
chebyshev_reaction('aRO2 (+ M) <=> aQOOH[O] (+ M)',
                   Tmin=180.0, Tmax=1500.0,
                   Pmin=(0.01, 'atm'), Pmax=(98.692, 'atm'),
                   coeffs=[[-1.38100e+01,  5.82100e+00,  6.42900e-01,  1.02800e-01, -9.03400e-02, -5.96400e-02, -9.50900e-03,  6.09600e-03],
                           [ 6.36800e+00, -2.07800e+00, -4.42000e-01,  1.82800e-02,  1.32800e-01,  5.74300e-02, -1.54300e-03, -9.50900e-03],
                           [-3.58400e+00,  1.54300e-01, -2.01900e-01, -9.04500e-02, -2.61000e-02,  7.94800e-03,  1.16900e-02,  1.57300e-03],
                           [-1.70500e+00,  1.31900e-01, -6.23700e-02, -2.78200e-02, -6.21000e-03, -1.97600e-03, -2.06200e-03,  5.59100e-04],
                           [-5.73200e-01, -9.52500e-02,  6.87800e-02, -9.61600e-03, -9.87800e-03, -3.27400e-03,  1.24500e-03,  5.77900e-04],
                           [-2.64600e-01,  5.03800e-03,  8.43800e-03,  1.32300e-02,  4.70200e-05, -2.10100e-03, -7.35800e-04,  6.22400e-04],
                           [-1.89100e-01,  1.03200e-01, -3.03600e-02,  4.71300e-03,  3.74800e-03,  1.21000e-03, -4.09800e-04, -5.82000e-04],
                           [-2.68100e-02, -5.30000e-02,  3.37300e-02, -5.21900e-03, -1.83800e-03,  2.60500e-04,  3.58000e-04,  5.86200e-05],
                           [-6.87500e-04, -2.96200e-02,  5.21100e-03,  1.34400e-04, -2.39800e-03,  2.66400e-04,  6.71800e-04,  1.89000e-04],
                           [-7.96800e-02,  5.05700e-02, -2.33600e-02,  8.62800e-03,  7.63500e-03, -1.12100e-03, -1.88100e-03, -6.52000e-04]])

# Reaction 8
chebyshev_reaction('aadduct (+ M) <=> aQOOH[O] (+ M)',
                   Tmin=180.0, Tmax=1500.0,
                   Pmin=(0.01, 'atm'), Pmax=(98.692, 'atm'),
                   coeffs=[[-1.64600e+01,  5.90300e+00,  6.84400e-01,  1.15400e-01, -8.93500e-02, -6.03000e-02, -9.87900e-03,  5.90200e-03],
                           [ 3.42800e+00, -2.26300e+00, -5.67000e-01, -4.50300e-02,  1.11800e-01,  5.45200e-02, -2.53100e-04, -8.67100e-03],
                           [-4.22700e+00,  1.33500e-01, -2.19500e-01, -9.99200e-02, -2.73100e-02,  1.01500e-02,  1.35000e-02,  2.13400e-03],
                           [-2.05600e+00,  1.73400e-01, -4.35700e-02, -2.25500e-02, -5.25700e-03, -1.18700e-03, -1.62500e-03,  5.42000e-04],
                           [-7.09900e-01, -7.49200e-02,  8.05200e-02, -5.23200e-03, -8.72200e-03, -3.35500e-03,  9.26600e-04,  3.42800e-04],
                           [-4.35600e-01,  2.23300e-02,  1.73200e-02,  1.55900e-02,  1.52500e-04, -2.40600e-03, -9.34100e-04,  5.20500e-04],
                           [-2.34900e-01,  1.10400e-01, -2.78700e-02,  5.04900e-03,  3.22200e-03,  9.49400e-04, -5.17700e-04, -6.00300e-04],
                           [-1.86500e-02, -5.67900e-02,  3.29200e-02, -4.81800e-03, -1.50000e-03,  1.39700e-04,  1.73100e-04,  1.83100e-06],
                           [-6.66400e-02, -2.62700e-02,  6.39100e-03, -2.25700e-04, -2.57500e-03,  3.42800e-04,  8.18300e-04,  2.33700e-04],
                           [-7.01300e-02,  4.71600e-02, -2.56800e-02,  7.94100e-03,  7.42100e-03, -1.08100e-03, -1.85700e-03, -6.34000e-04]])

# Reaction 9
chebyshev_reaction('O2 + aR (+ M) <=> aQOOH[O] (+ M)',
                   Tmin=180.0, Tmax=1500.0,
                   Pmin=(0.01, 'atm'), Pmax=(98.692, 'atm'),
                   coeffs=[[-2.38800e+00,  5.11700e+00,  6.77300e-01, -1.97600e-01,  1.61400e-01,  2.49100e-01, -4.27600e-02, -1.07800e-01],
                           [ 9.44200e-01, -3.47300e+00, -3.95800e-01,  4.49900e-01, -2.61200e-01, -3.54000e-01,  1.05100e-01,  1.51300e-01],
                           [-9.74900e-01,  2.26200e-01, -3.95600e-01, -2.25700e-01,  1.74300e-01,  8.70900e-02, -1.09100e-01, -2.26600e-02],
                           [-7.17100e-01,  9.00100e-02,  7.73200e-02, -5.97200e-02, -5.73900e-02,  6.16100e-02,  4.82300e-02, -5.07900e-02],
                           [-3.72000e-01,  6.75700e-02,  7.26900e-02,  3.36000e-02, -3.14100e-02, -3.71900e-02,  1.82000e-02,  3.02800e-02],
                           [-1.27400e-01, -1.43700e-03, -1.25600e-02,  1.89000e-02,  1.69200e-02, -1.73700e-02, -1.97900e-02,  1.34200e-02],
                           [-4.69500e-02,  2.04400e-03, -5.71800e-03, -4.44400e-03,  5.13400e-03,  1.08400e-02, -4.95800e-03, -1.47200e-02],
                           [-4.18500e-02,  2.19400e-02,  4.75600e-04, -4.30200e-03,  2.55000e-03,  4.16600e-03,  2.86200e-03, -2.58200e-03],
                           [-1.20200e-02, -1.18700e-02,  1.85700e-02,  4.11700e-03, -9.03400e-03, -8.89400e-04,  5.53100e-03,  8.94100e-04],
                           [-3.84900e-02, -4.80400e-03, -1.60700e-02, -2.85300e-03,  6.91500e-03,  1.79900e-05, -4.35300e-04,  6.97100e-03]])
#  aQOOHb(+M) <=> aQOOHg(+M)                           1.000e+00 0.000     0.000
#      TCHEB/ 180.000   1500.000 /
#      PCHEB/ 0.010     98.692   /
#      CHEB/ 10 8/
#      CHEB/ -1.096e+01   3.151e+00    -1.695e-01   -8.178e-02   -7.270e-03  /
#      CHEB/ 4.735e-03    2.093e-04    -4.224e-04   -2.046e+00   1.827e+00   /
#      CHEB/ 3.706e-01    2.588e-02    -1.414e-02   -3.123e-03   1.561e-03   /
#      CHEB/ 5.692e-04    -3.642e+00   -7.545e-01   -3.239e-02   1.137e-01   /
#      CHEB/ 2.153e-02    -7.446e-03   -3.084e-03   1.681e-04    -1.712e+00  /
#      CHEB/ -6.547e-01   -2.367e-01   2.817e-03    2.699e-02    5.708e-03   /
#      CHEB/ -1.118e-03   -7.502e-04   -5.446e-01   -1.233e-01   -1.281e-01  /
#      CHEB/ -5.590e-02   -4.401e-03   5.723e-03    2.038e-03    1.870e-04   /
#      CHEB/ -1.380e-01   9.539e-02    1.387e-02    -2.566e-02   -1.525e-02  /
#      CHEB/ -2.552e-03   1.210e-03    7.425e-04    -6.501e-02   7.614e-02   /
#      CHEB/ 4.548e-02    1.138e-02    -3.248e-03   -4.500e-03   -1.163e-03  /
#      CHEB/ 2.524e-04    -4.993e-02   -2.247e-03   1.457e-02    1.299e-02   /
#      CHEB/ 6.491e-03    1.518e-04    -1.447e-03   -5.256e-04   -3.255e-02  /
#      CHEB/ -2.418e-02   -1.269e-02   -1.437e-03   3.921e-03    2.855e-03   /
#      CHEB/ 2.457e-04    -4.432e-04   -2.027e-02   -4.064e-03   -8.264e-03  /
#      CHEB/ -7.371e-03   -1.577e-03   7.406e-04    9.859e-04    1.894e-04   /
#  aQOOH[O](+M) <=> aQOOHg(+M)                         1.000e+00 0.000     0.000
#      TCHEB/ 180.000   1500.000 /
#      PCHEB/ 0.010     98.692   /
#      CHEB/ 10 8/
#      CHEB/ -2.797e+00   3.419e+00    -6.098e-01   1.558e-01    -2.267e-02  /
#      CHEB/ -9.986e-03   6.840e-03    -2.440e-03   -5.774e+00   3.822e-01   /
#      CHEB/ 5.945e-01    -1.932e-01   3.002e-02    2.156e-02    -8.573e-03  /
#      CHEB/ 2.694e-04    -4.063e+00   -2.604e-01   -7.503e-02   -2.968e-03  /
#      CHEB/ 2.969e-03    1.214e-03    6.761e-05    2.953e-04    -1.743e+00  /
#      CHEB/ -1.630e-01   -1.646e-01   -6.674e-03   7.414e-03    -2.814e-03  /
#      CHEB/ -6.932e-04   7.962e-04    -5.647e-01   -1.095e-02   -2.841e-02  /
#      CHEB/ -3.417e-02   2.419e-04    8.552e-04    -5.287e-04   6.757e-04   /