units(length='cm', time='s', quantity='mol', act_energy='kcal/mol')

ideal_gas(name='gas',
          elements="H D T C Ci O Oi N Ne Ar He Si S F Cl Br I X",
          species="""OH             bQOOH[O]       acetone
                     H2O            balkoxyketone  ibutenol
                     trisub_epoxy   bQOOHg         CH2O
                     galkene        O2             bR
                     bQOOHa         bRO2           disub_epoxy
                     HO2""",
          reactions='all',
          initial_state=state(temperature=300.0, pressure=OneAtm))

#-------------------------------------------------------------------------------
# Element data
#-------------------------------------------------------------------------------

element(symbol='Ci', atomic_mass=13.003)
element(symbol='D', atomic_mass=2.014)
element(symbol='Oi', atomic_mass=18.0)
element(symbol='T', atomic_mass=3.016)
element(symbol='X', atomic_mass=195.083)
#-------------------------------------------------------------------------------
# Species data
#-------------------------------------------------------------------------------

species(name='OH',
        atoms='H:1 O:1',
        thermo=(NASA([10.00, 984.14],
                     [ 3.49686242E+00,  1.83973160E-04, -9.97634499E-07,
                       1.56942783E-09, -6.10128175E-13,  3.41673934E+03,
                       1.48093120E+00]),
                NASA([984.14, 3000.00],
                     [ 3.45221464E+00, -2.95124034E-04,  7.39418622E-07,
                      -2.89309866E-10,  3.53041498E-14,  3.45751599E+03,
                       1.85813897E+00])))

species(name='bQOOH[O]',
        atoms='C:4 H:9 O:3',
        thermo=(NASA([10.00, 338.69],
                     [ 3.60915854E+00,  3.39069566E-02,  2.22227265E-04,
                      -8.23527342E-07,  8.56246333E-10, -2.31291987E+04,
                       1.23284605E+01]),
                NASA([338.69, 3000.00],
                     [ 5.03198881E+00,  5.46235886E-02, -3.56935806E-05,
                       1.12371751E-08, -1.35390171E-12, -2.34407814E+04,
                       3.82760723E+00])))

species(name='acetone',
        atoms='C:3 H:6 O:1',
        thermo=(NASA([10.00, 414.35],
                     [ 3.73496166E+00,  3.05743218E-02, -1.26253585E-04,
                       3.66080978E-07, -3.31430437E-10, -2.75741276E+04,
                       8.24936012E+00]),
                NASA([414.35, 3000.00],
                     [ 1.70010292E-01,  3.28431468E-02, -1.80960132E-05,
                       4.82960690E-09, -5.02388538E-13, -2.70027445E+04,
                       2.56372653E+01])))

species(name='H2O',
        atoms='H:2 O:1',
        thermo=(NASA([10.00, 773.84],
                     [ 4.00473541E+00, -2.39729134E-04,  8.11862955E-07,
                       1.47891862E-09, -1.19783539E-12, -3.03533807E+04,
                      -9.96254147E-02]),
                NASA([773.84, 3000.00],
                     [ 3.52133374E+00,  1.05377009E-03,  6.40722099E-07,
                      -3.86240235E-10,  5.49243294E-14, -3.02424794E+04,
                       2.34173094E+00])))

species(name='balkoxyketone',
        atoms='C:4 H:7 O:2',
        thermo=(NASA([10.00, 269.93],
                     [ 3.81931151E+00,  1.68519318E-02,  2.42742224E-04,
                      -9.64821161E-07,  1.18509335E-09, -2.11245372E+04,
                       1.20521854E+01]),
                NASA([269.93, 3000.00],
                     [ 3.57555944E+00,  4.28868089E-02, -2.65390705E-05,
                       7.99659117E-09, -9.32983470E-13, -2.11930654E+04,
                       1.13957990E+01])))

species(name='ibutenol',
        atoms='C:4 H:8 O:1',
        thermo=(NASA([10.00, 135.97],
                     [ 3.95714996E+00,  5.72646980E-03,  4.63611760E-04,
                      -3.04137514E-06,  6.85019471E-09, -2.31838400E+04,
                       8.21931848E+00]),
                NASA([135.97, 3000.00],
                     [ 3.32467612E+00,  3.69033556E-02, -1.89960416E-05,
                       4.73417677E-09, -4.59705291E-13, -2.31782613E+04,
                       9.58133237E+00])))

species(name='trisub_epoxy',
        atoms='C:4 H:8 O:2',
        thermo=(NASA([10.00, 209.19],
                     [ 3.75295042E+00,  2.37546930E-02,  1.26610110E-04,
                      -4.78364365E-07,  5.79468168E-10, -4.14210898E+04,
                       1.12739684E+01]),
                NASA([209.19, 3000.00],
                     [ 2.64185254E+00,  4.50006531E-02, -2.57361066E-05,
                       7.15266054E-09, -7.72980731E-13, -4.13746042E+04,
                       1.48960343E+01])))

species(name='bQOOHg',
        atoms='C:4 H:9 O:3',
        thermo=(NASA([10.00, 441.09],
                     [ 3.56595280E+00,  3.36073467E-02,  2.03462772E-04,
                      -5.98977617E-07,  4.83271168E-10, -2.39500537E+04,
                       1.33537891E+01]),
                NASA([441.09, 3000.00],
                     [ 6.09031192E+00,  5.80517622E-02, -4.06392697E-05,
                       1.32574026E-08, -1.62501077E-12, -2.46332391E+04,
                      -1.97849715E+00])))

species(name='CH2O',
        atoms='C:1 H:2 O:1',
        thermo=(NASA([10.00, 601.31],
                     [ 4.03190845E+00, -1.93233367E-03,  8.89743345E-06,
                       2.98105926E-09, -7.90813886E-12, -1.42276270E+04,
                       3.47574660E+00]),
                NASA([601.31, 3000.00],
                     [ 1.40134195E+00,  9.48858016E-03, -4.43088317E-06,
                       9.48452194E-10, -7.43790219E-14, -1.38013869E+04,
                       1.57423780E+01])))

species(name='galkene',
        atoms='C:4 H:8 O:1',
        thermo=(NASA([10.00, 383.47],
                     [ 3.84035604E+00,  1.20378740E-02,  1.87486319E-04,
                      -5.44759148E-07,  4.80711015E-10, -2.01918749E+04,
                       1.02570291E+01]),
                NASA([383.47, 3000.00],
                     [ 4.00413385E+00,  3.79025144E-02, -2.15435710E-05,
                       6.15213311E-09, -6.97446345E-13, -2.04071642E+04,
                       6.98052628E+00])))

species(name='O2',
        atoms='O:2',
        thermo=(NASA([10.00, 605.96],
                     [ 3.50743498E+00, -4.43860349E-04,  1.45938058E-06,
                       1.61509333E-09, -2.32050052E-12, -9.24756224E+02,
                       4.72183634E+00]),
                NASA([605.96, 3000.00],
                     [ 2.87462882E+00,  2.17840991E-03, -1.18262921E-06,
                       2.86910493E-10, -2.53297146E-14, -8.19517838E+02,
                       7.69331810E+00])))

species(name='bR',
        atoms='C:4 H:9 O:1',
        thermo=(NASA([10.00, 483.43],
                     [ 3.38164846E+00,  5.97142637E-02, -1.58320095E-04,
                       3.04908893E-07, -2.13091806E-10, -1.29160188E+04,
                       1.09226843E+01]),
                NASA([483.43, 3000.00],
                     [ 2.33428824E+00,  4.22094427E-02, -2.28029290E-05,
                       6.04614564E-09, -6.30240159E-13, -1.25089369E+04,
                       1.83772893E+01])))

species(name='bQOOHa',
        atoms='C:4 H:9 O:3',
        thermo=(NASA([10.00, 390.53],
                     [ 3.54969236E+00,  3.76592474E-02,  1.76622653E-04,
                      -5.98063750E-07,  5.45069236E-10, -2.61916837E+04,
                       1.31518761E+01]),
                NASA([390.53, 3000.00],
                     [ 5.33564209E+00,  5.64935715E-02, -3.83214298E-05,
                       1.22990604E-08, -1.49549987E-12, -2.66142936E+04,
                       2.59015836E+00])))

species(name='bRO2',
        atoms='C:4 H:9 O:3',
        thermo=(NASA([10.00, 461.39],
                     [ 3.53964713E+00,  3.88723795E-02,  9.57420148E-05,
                      -2.80380499E-07,  2.09647462E-10, -3.43136595E+04,
                       1.18803618E+01]),
                NASA([461.39, 3000.00],
                     [ 3.47201723E+00,  6.00510247E-02, -4.00567321E-05,
                       1.25663813E-08, -1.49496682E-12, -3.45266062E+04,
                       9.77903975E+00])))

species(name='disub_epoxy',
        atoms='C:4 H:8 O:2',
        thermo=(NASA([10.00, 549.41],
                     [ 3.89863211E+00,  5.97532637E-03,  1.66685676E-04,
                      -3.10743768E-07,  1.78330192E-10, -3.60414565E+04,
                       1.13847308E+01]),
                NASA([549.41, 3000.00],
                     [-6.40277648E-01,  6.05960003E-02, -4.13427220E-05,
                       1.31555461E-08, -1.57685017E-12, -3.58683396E+04,
                       2.76005436E+01])))

species(name='HO2',
        atoms='H:1 O:2',
        thermo=(NASA([10.00, 891.11],
                     [ 4.02887004E+00, -1.75769289E-03,  1.08726004E-05,
                      -1.13812972E-08,  3.90113097E-12,  4.95165001E+02,
                       4.69302008E+00]),
                NASA([891.11, 3000.00],
                     [ 3.06571044E+00,  4.28505005E-03, -2.19325920E-06,
                       5.58882699E-10, -5.61246669E-14,  5.98557610E+02,
                       8.84564156E+00])))

#-------------------------------------------------------------------------------
# Reaction data
#-------------------------------------------------------------------------------

# Reaction 1
chebyshev_reaction('bQOOHg (+ M) <=> bRO2 (+ M)',
                   Tmin=180.0, Tmax=1500.0,
                   Pmin=(0.01, 'atm'), Pmax=(98.692, 'atm'),
                   coeffs=[[-1.91800e+00,  1.55500e+00, -5.47400e-03, -1.55500e-02, -9.85500e-03,  5.41100e-05,  1.12000e-03,  3.01700e-04],
                           [-1.78900e+00,  1.71500e+00,  1.39200e-01, -1.18100e-02, -1.39200e-02, -1.64800e-03,  1.22100e-03,  3.78700e-04],
                           [-2.20800e+00,  5.78200e-02,  5.26200e-02,  5.74700e-02,  4.91800e-03, -4.52000e-03, -1.54100e-03,  8.98200e-05],
                           [-1.24600e+00, -3.64900e-01, -8.29000e-02,  3.85000e-02,  1.90800e-02, -3.76200e-04, -2.57700e-03, -4.74500e-04],
                           [-6.09200e-01, -7.94400e-02, -6.61000e-02, -7.70400e-03,  7.58000e-03,  2.63500e-03, -3.70300e-04, -3.18300e-04],
                           [-3.52300e-01,  1.43700e-01,  8.30800e-03, -1.27400e-02, -3.93000e-03,  1.87600e-04,  6.56600e-04,  2.50700e-04],
                           [-2.49300e-01,  1.18000e-01,  3.37200e-02,  9.12500e-04, -1.06500e-03, -8.33500e-04, -2.55600e-04,  2.87000e-05],
                           [-1.87400e-01,  1.83400e-02,  1.13000e-02,  4.38100e-03,  3.80300e-03,  1.16300e-03, -4.93200e-04, -4.54700e-04],
                           [-1.02600e-01, -3.95400e-02, -3.52100e-03, -1.62700e-03,  2.18800e-03,  1.96700e-03,  2.66000e-04, -3.15300e-04],
                           [-4.69700e-02, -3.96400e-02, -1.75800e-03, -2.16000e-03, -1.82000e-03,  4.31600e-04,  5.61600e-04,  1.31300e-04]])

# Reaction 2
chebyshev_reaction('bQOOHa (+ M) <=> bRO2 (+ M)',
                   Tmin=180.0, Tmax=1500.0,
                   Pmin=(0.01, 'atm'), Pmax=(98.692, 'atm'),
                   coeffs=[[ 2.89900e-01,  1.86500e+00, -2.68500e-01,  5.79300e-02,  1.32200e-02, -1.08200e-02,  9.51700e-04,  7.98800e-04],
                           [-1.96500e+00,  6.73300e-01,  3.90900e-01, -2.94900e-02, -7.42800e-03,  4.16900e-03, -2.71400e-03,  3.51500e-04],
                           [-2.70100e+00, -3.98700e-02,  1.01200e-01,  2.94400e-02, -3.39600e-03,  8.98700e-04, -1.03600e-04, -4.94100e-04],
                           [-1.27900e+00, -7.74000e-02, -4.33500e-02, -1.33000e-03,  2.75600e-03,  1.68600e-03,  7.29200e-04, -3.04800e-04],
                           [-4.96300e-01, -5.38600e-02, -7.96300e-03, -7.45500e-03, -4.39800e-03,  1.41300e-03,  6.83200e-04, -1.92600e-04],
                           [-3.25600e-01,  6.82200e-02, -7.24100e-03,  2.18800e-03,  3.54900e-03, -1.44200e-03, -4.71800e-04,  2.08800e-04],
                           [-1.59300e-01,  5.92600e-03,  5.44600e-03,  7.47400e-03,  4.31900e-03,  1.81400e-04, -5.20500e-04, -8.51600e-05],
                           [-8.17900e-02, -6.10400e-02,  4.60500e-03,  6.11000e-03,  1.36500e-03,  1.02200e-03,  1.39600e-04, -2.14900e-04],
                           [-1.77200e-02, -6.19400e-02,  3.51700e-03,  1.11100e-03, -1.01700e-03,  9.25500e-04,  1.49000e-04, -1.15900e-04],
                           [-1.47300e-01,  6.42100e-02, -3.14100e-02, -2.84700e-03,  5.58300e-03, -1.55100e-03, -3.64500e-04,  4.20100e-04]])

# Reaction 3
chebyshev_reaction('bQOOH[O] (+ M) <=> bRO2 (+ M)',
                   Tmin=180.0, Tmax=1500.0,
                   Pmin=(0.01, 'atm'), Pmax=(98.692, 'atm'),
                   coeffs=[[ 5.19000e+00,  1.78700e+00, -9.89200e-02, -2.32400e-02, -2.54100e-03,  1.76000e-03,  8.54600e-04,  1.65700e-05],
                           [-5.05700e+00,  4.95200e-01,  1.26100e-01,  2.60100e-02,  1.92000e-04, -2.78400e-03, -9.74200e-04,  8.13600e-05],
                           [-2.81600e+00, -8.57600e-02, -4.85100e-02, -2.31600e-03,  4.52100e-03,  2.99900e-03,  5.02000e-04, -2.57300e-04],
                           [-1.32000e+00,  7.73300e-02, -1.80500e-02, -1.19100e-02, -4.31200e-03, -2.23000e-04,  6.61600e-04,  2.99900e-04],
                           [-6.31100e-01,  5.81600e-02,  2.33200e-02,  8.83800e-03,  1.52600e-03, -6.07900e-04, -7.78200e-04, -2.78900e-04],
                           [-3.59900e-01,  5.08100e-02,  7.24900e-03,  2.53000e-03,  2.21700e-03,  1.06700e-03,  2.75100e-04, -8.88700e-05],
                           [-1.70600e-01, -3.28100e-02,  8.65300e-05,  1.09200e-03,  5.57200e-04,  4.53700e-04,  2.06800e-04,  7.43500e-05],
                           [-1.91100e-01,  8.88400e-03,  9.02200e-03,  2.77100e-03,  6.25500e-04, -2.19800e-04, -2.18200e-04, -8.83000e-05],
                           [-1.14900e-01, -7.30800e-03,  1.09000e-02,  3.29200e-03,  8.24800e-04,  8.55500e-05, -1.18500e-04, -6.07200e-05],
                           [ 1.46400e-02, -4.72600e-02, -7.77800e-03,  1.92400e-03,  1.10400e-03,  3.65100e-04,  1.40900e-04, -5.78400e-06]])

# Reaction 4
chebyshev_reaction('O2 + bR (+ M) <=> bRO2 (+ M)',
                   Tmin=180.0, Tmax=1500.0,
                   Pmin=(0.01, 'atm'), Pmax=(98.692, 'atm'),
                   coeffs=[[ 1.18200e+01,  3.98900e-01, -4.96800e-02,  4.05700e-03, -1.09300e-03,  1.96500e-04, -1.89500e-05,  5.76500e-06],
                           [-1.02800e+00,  7.23600e-01, -7.60300e-02,  3.07000e-03, -1.05900e-03,  1.11900e-04,  2.62000e-05, -3.36200e-06],
                           [-7.57100e-01,  5.45500e-01, -2.69400e-02, -4.70700e-03,  6.96100e-05, -8.25500e-05,  4.46300e-05, -5.52900e-06],
                           [-5.92800e-01,  3.42500e-01,  1.66300e-02, -7.45700e-03, -1.32900e-04, -3.25700e-05,  1.73100e-05, -2.80400e-06],
                           [-4.25900e-01,  1.75200e-01,  3.76900e-02, -4.12900e-03, -9.58200e-04, -1.03000e-05,  5.84000e-06, -5.11700e-06],
                           [-2.90200e-01,  6.45600e-02,  3.80600e-02,  1.26100e-03, -1.17400e-03, -1.61000e-04,  4.18800e-06, -5.65100e-06],
                           [-1.90900e-01,  3.25400e-03,  2.79600e-02,  4.96500e-03, -5.26200e-04, -3.25300e-04, -2.89200e-05, -1.20800e-06],
                           [-1.21500e-01, -2.52300e-02,  1.61500e-02,  5.94600e-03,  3.96400e-04, -3.25100e-04, -8.53800e-05, -9.56800e-07],
                           [-7.39700e-02, -3.50400e-02,  6.67600e-03,  5.10000e-03,  9.98900e-04, -1.67500e-04, -1.18200e-04, -9.79300e-06],
                           [-4.18900e-02, -3.49800e-02,  2.07200e-04,  3.61200e-03,  1.12600e-03,  1.74500e-05, -1.00400e-04, -1.99200e-05]])
#  bRO2(+M) <=> bQOOHg(+M)                             1.000e+00 0.000     0.000
#      TCHEB/ 180.000   1500.000 /
#      PCHEB/ 0.010     98.692   /
#      CHEB/ 10 8/
#      CHEB/ -1.497e+01   1.555e+00    -5.474e-03   -1.555e-02   -9.855e-03  /
#      CHEB/ 5.411e-05    1.120e-03    3.017e-04    9.606e+00    1.715e+00   /
#      CHEB/ 1.392e-01    -1.181e-02   -1.392e-02   -1.648e-03   1.221e-03   /
#      CHEB/ 3.787e-04    -2.063e+00   5.782e-02    5.262e-02    5.747e-02   /
#      CHEB/ 4.918e-03    -4.520e-03   -1.541e-03   8.982e-05    -1.209e+00  /
#      CHEB/ -3.649e-01   -8.290e-02   3.850e-02    1.908e-02    -3.762e-04  /
#      CHEB/ -2.577e-03   -4.745e-04   -6.035e-01   -7.944e-02   -6.610e-02  /
#      CHEB/ -7.704e-03   7.580e-03    2.635e-03    -3.703e-04   -3.183e-04  /
#      CHEB/ -3.524e-01   1.437e-01    8.308e-03    -1.274e-02   -3.930e-03  /
#      CHEB/ 1.876e-04    6.566e-04    2.507e-04    -2.499e-01   1.180e-01   /
#      CHEB/ 3.372e-02    9.125e-04    -1.065e-03   -8.335e-04   -2.556e-04  /
#      CHEB/ 2.870e-05    -1.879e-01   1.834e-02    1.130e-02    4.381e-03   /
#      CHEB/ 3.803e-03    1.163e-03    -4.932e-04   -4.547e-04   -1.030e-01  /
#      CHEB/ -3.954e-02   -3.521e-03   -1.627e-03   2.188e-03    1.967e-03   /
#      CHEB/ 2.660e-04    -3.153e-04   -4.715e-02   -3.964e-02   -1.758e-03  /
#      CHEB/ -2.160e-03   -1.820e-03   4.316e-04    5.616e-04    1.313e-04   /

# Reaction 5
chebyshev_reaction('bQOOHa (+ M) <=> bQOOHg (+ M)',
                   Tmin=180.0, Tmax=1500.0,
                   Pmin=(0.01, 'atm'), Pmax=(98.692, 'atm'),
                   coeffs=[[-1.59300e+01,  2.35100e+00, -6.55100e-02,  4.23700e-03, -1.72700e-02, -1.02300e-02,  2.63100e-03,  1.19900e-03],
                           [-6.14600e-02,  1.96800e+00,  5.49100e-01,  2.73600e-02, -1.19300e-02, -2.93800e-03, -3.08700e-03,  5.52100e-04],
                           [-2.88600e+00, -6.68600e-01, -1.15900e-01,  5.45100e-02,  2.21200e-02,  6.53300e-03, -3.18600e-04, -1.13500e-03],
                           [-1.38200e+00, -5.31600e-01, -1.94600e-01, -5.34900e-03,  7.73600e-03,  1.27700e-03,  2.77000e-04,  7.55700e-05],
                           [-5.09100e-01,  1.85500e-03, -2.51200e-02, -1.12200e-02, -4.81100e-03, -2.16200e-03, -1.25700e-03, -9.94300e-05],
                           [-3.02400e-01,  2.51100e-01,  3.42300e-02,  3.02900e-03,  1.17700e-03, -2.34200e-03, -9.87600e-04, -1.88200e-05],
                           [-2.30800e-01,  1.33600e-01,  3.90200e-02,  8.81400e-03,  4.90900e-03,  9.94600e-04, -3.00900e-04, -2.42300e-04],
                           [-1.65300e-01, -9.96000e-03,  1.22300e-02,  4.30400e-03,  3.99400e-03,  2.97600e-03,  3.76800e-04, -4.48500e-04],
                           [-8.41300e-02, -6.77600e-02, -1.66700e-03, -4.41100e-03, -3.84200e-05,  2.46500e-03,  5.32600e-04, -2.21900e-04],
                           [-7.63900e-02,  1.30200e-02, -2.37100e-02, -3.44100e-03,  9.10300e-04, -1.61300e-03,  2.24400e-04,  5.03100e-04]])

# Reaction 6
chebyshev_reaction('bQOOH[O] (+ M) <=> bQOOHg (+ M)',
                   Tmin=180.0, Tmax=1500.0,
                   Pmin=(0.01, 'atm'), Pmax=(98.692, 'atm'),
                   coeffs=[[-1.04000e+01,  2.36000e+00,  4.82500e-02, -8.52800e-02, -4.16900e-02, -4.04000e-03,  4.20500e-03,  2.29900e-03],
                           [-3.34500e+00,  1.46800e+00,  3.24800e-01,  1.03700e-01, -2.61100e-03, -1.26500e-02, -4.74100e-03, -2.19500e-04],
                           [-3.04500e+00, -6.99300e-01, -1.99200e-01,  4.38300e-02,  4.12400e-02,  1.29700e-02, -3.64000e-04, -2.62500e-03],
                           [-1.50600e+00, -4.32000e-01, -1.91700e-01, -2.03600e-02,  1.09700e-02,  5.66200e-03,  1.70000e-03,  4.72200e-04],
                           [-6.26200e-01,  4.72300e-02, -4.44800e-02, -1.19900e-02, -4.38800e-03, -2.89300e-03, -7.25800e-04,  6.22100e-04],
                           [-3.22300e-01,  2.32700e-01,  3.45100e-02, -8.14300e-03, -6.61200e-03, -2.71600e-03, -5.23600e-04,  3.01700e-04],
                           [-1.84500e-01,  1.00300e-01,  3.92800e-02,  5.50200e-03,  8.64000e-05, -8.68900e-04, -7.32300e-04, -2.80300e-04],
                           [-2.15800e-01,  3.66500e-02,  2.25400e-02,  8.83700e-03,  5.51500e-03,  1.53200e-03, -6.38400e-04, -7.85900e-04],
                           [-1.29900e-01, -1.88300e-02,  4.89600e-03,  2.84100e-03,  3.44200e-03,  2.16600e-03,  3.71700e-04, -3.88200e-04],
                           [ 3.72300e-02, -7.86200e-02, -1.42300e-03, -3.73500e-03, -7.88400e-04,  1.25000e-03,  6.14900e-04,  2.77000e-04]])

# Reaction 7
chebyshev_reaction('O2 + bR (+ M) <=> bQOOHg (+ M)',
                   Tmin=180.0, Tmax=1500.0,
                   Pmin=(0.01, 'atm'), Pmax=(98.692, 'atm'),
                   coeffs=[[-8.22500e-01,  2.68100e+00, -1.03700e-02, -3.03000e-01, -5.73000e-02,  4.60400e-02,  1.77500e-02, -7.84400e-03],
                           [-1.50800e+00, -2.67400e-01,  2.97800e-01,  3.15800e-01,  7.94200e-03, -6.64700e-02, -1.67200e-02,  1.30600e-02],
                           [-1.39700e+00, -4.14700e-01, -7.33200e-02,  9.31700e-02,  3.88500e-02,  1.84100e-03, -4.72200e-03, -3.84400e-03],
                           [-8.30000e-01, -6.75000e-02, -1.74500e-01, -3.21600e-02,  2.60600e-02,  1.29000e-02, -1.32100e-05, -2.13900e-03],
                           [-3.61200e-01,  1.79200e-01, -7.06900e-02, -5.34500e-02, -2.18800e-03,  5.39800e-03,  2.24800e-03,  4.85200e-04],
                           [-1.53200e-01,  1.81900e-01,  4.22200e-02, -2.37600e-02, -1.23800e-02, -1.05700e-03,  1.16600e-03,  6.36600e-04],
                           [-9.74000e-02,  6.57500e-02,  6.75100e-02,  7.51700e-03, -5.50400e-03, -2.95400e-03, -7.45700e-04,  1.83600e-04],
                           [-7.88300e-02, -1.78900e-02,  3.51800e-02,  1.35300e-02,  1.24100e-03, -5.42700e-04, -6.84300e-04, -3.96400e-04],
                           [-5.17900e-02, -4.16900e-02,  5.41200e-03,  7.39300e-03,  2.08400e-03,  2.96400e-04, -1.07000e-04, -1.27200e-04],
                           [-2.33000e-02, -2.58000e-02, -1.36700e-03,  2.38000e-03, -2.86100e-04,  1.09800e-04,  2.36500e-04,  2.37500e-05]])
#  bRO2(+M) <=> bQOOHa(+M)                             1.000e+00 0.000     0.000
#      TCHEB/ 180.000   1500.000 /
#      PCHEB/ 0.010     98.692   /
#      CHEB/ 10 8/
#      CHEB/ -9.836e+00   1.865e+00    -2.685e-01   5.793e-02    1.322e-02   /
#      CHEB/ -1.082e-02   9.517e-04    7.988e-04    6.903e+00    6.733e-01   /
#      CHEB/ 3.909e-01    -2.949e-02   -7.428e-03   4.169e-03    -2.714e-03  /
#      CHEB/ 3.515e-04    -2.646e+00   -3.987e-02   1.012e-01    2.944e-02   /
#      CHEB/ -3.396e-03   8.987e-04    -1.036e-04   -4.941e-04   -1.278e+00  /
#      CHEB/ -7.740e-02   -4.335e-02   -1.330e-03   2.756e-03    1.686e-03   /
#      CHEB/ 7.292e-04    -3.048e-04   -5.012e-01   -5.386e-02   -7.963e-03  /
#      CHEB/ -7.455e-03   -4.398e-03   1.413e-03    6.832e-04    -1.926e-04  /
#      CHEB/ -3.284e-01   6.822e-02    -7.241e-03   2.188e-03    3.549e-03   /
#      CHEB/ -1.442e-03   -4.718e-04   2.088e-04    -1.606e-01   5.926e-03   /
#      CHEB/ 5.446e-03    7.474e-03    4.319e-03    1.814e-04    -5.205e-04  /
#      CHEB/ -8.516e-05   -8.251e-02   -6.104e-02   4.605e-03    6.110e-03   /
#      CHEB/ 1.365e-03    1.022e-03    1.396e-04    -2.149e-04   -1.807e-02  /
#      CHEB/ -6.194e-02   3.517e-03    1.111e-03    -1.017e-03   9.255e-04   /
#      CHEB/ 1.490e-04    -1.159e-04   -1.474e-01   6.421e-02    -3.141e-02  /
#      CHEB/ -2.847e-03   5.583e-03    -1.551e-03   -3.645e-04   4.201e-04   /
#  bQOOHg(+M) <=> bQOOHa(+M)                           1.000e+00 0.000     0.000
#      TCHEB/ 180.000   1500.000 /
#      PCHEB/ 0.010     98.692   /
#      CHEB/ 10 8/
#      CHEB/ -1.301e+01   2.351e+00    -6.551e-02   4.237e-03    -1.727e-02  /
#      CHEB/ -1.023e-02   2.631e-03    1.199e-03    -2.589e+00   1.968e+00   /
#      CHEB/ 5.491e-01    2.736e-02    -1.193e-02   -2.938e-03   -3.087e-03  /
#      CHEB/ 5.521e-04    -2.976e+00   -6.686e-01   -1.159e-01   5.451e-02   /
#      CHEB/ 2.212e-02    6.533e-03    -3.186e-04   -1.135e-03   -1.418e+00  /
#      CHEB/ -5.316e-01   -1.946e-01   -5.349e-03   7.736e-03    1.277e-03   /
#      CHEB/ 2.770e-04    7.557e-05    -5.196e-01   1.855e-03    -2.512e-02  /
#      CHEB/ -1.122e-02   -4.811e-03   -2.162e-03   -1.257e-03   -9.943e-05  /
#      CHEB/ -3.051e-01   2.511e-01    3.423e-02    3.029e-03    1.177e-03   /
#      CHEB/ -2.342e-03   -9.876e-04   -1.882e-05   -2.316e-01   1.336e-01   /
#      CHEB/ 3.902e-02    8.814e-03    4.909e-03    9.946e-04    -3.009e-04  /
#      CHEB/ -2.423e-04   -1.655e-01   -9.960e-03   1.223e-02    4.304e-03   /
#      CHEB/ 3.994e-03    2.976e-03    3.768e-04    -4.485e-04   -8.415e-02  /
#      CHEB/ -6.776e-02   -1.667e-03   -4.411e-03   -3.842e-05   2.465e-03   /
#      CHEB/ 5.326e-04    -2.219e-04   -7.632e-02   1.302e-02    -2.371e-02  /
#      CHEB/ -3.441e-03   9.103e-04    -1.613e-03   2.244e-04    5.031e-04   /

# Reaction 8
chebyshev_reaction('bQOOH[O] (+ M) <=> bQOOHa (+ M)',
                   Tmin=180.0, Tmax=1500.0,
                   Pmin=(0.01, 'atm'), Pmax=(98.692, 'atm'),
                   coeffs=[[-6.07500e+00,  2.37300e+00, -2.20700e-01, -7.97000e-03, -6.65200e-03, -7.67300e-03,  2.22100e-03,  9.89800e-04],
                           [-5.78100e+00,  7.88100e-01,  5.18500e-01,  5.40400e-02,  1.67600e-03, -3.14200e-03, -5.27200e-03, -1.15600e-04],
                           [-3.41100e+00, -5.42300e-01, -1.09000e-01,  5.66400e-03,  1.25300e-02,  1.08400e-02,  2.13100e-03, -1.08200e-03],
                           [-1.51600e+00, -1.13500e-01, -1.18100e-01, -3.92500e-02, -9.57100e-03,  1.09600e-03,  2.67200e-03,  8.24500e-04],
                           [-5.92100e-01,  5.60400e-02,  2.49200e-02, -1.08700e-03, -6.81500e-03, -2.66000e-03, -1.21400e-03, -2.90700e-04],
                           [-3.22200e-01,  1.42500e-01,  2.19100e-02,  1.04300e-02,  4.71700e-03, -1.05100e-03, -7.44600e-04, -2.40400e-04],
                           [-1.43000e-01, -2.43700e-03,  1.17200e-02,  8.92000e-03,  4.63300e-03,  1.05900e-03, -8.90400e-05, -6.75500e-05],
                           [-1.64900e-01, -1.42600e-02,  1.32700e-02,  4.98700e-03,  1.13000e-03,  9.74600e-04,  2.42700e-04, -1.44200e-04],
                           [-9.57300e-02, -3.38800e-02,  1.26200e-02,  1.01900e-03, -7.62100e-04,  7.92900e-04,  1.09900e-04, -4.47100e-05],
                           [-1.63200e-02,  3.35900e-03, -2.86400e-02,  1.70600e-04,  3.72200e-03, -1.20100e-03, -3.44300e-06,  3.10800e-04]])

# Reaction 9
chebyshev_reaction('O2 + bR (+ M) <=> bQOOHa (+ M)',
                   Tmin=180.0, Tmax=1500.0,
                   Pmin=(0.01, 'atm'), Pmax=(98.692, 'atm'),
                   coeffs=[[ 1.23400e+00,  1.94300e+00,  2.15200e-01,  7.53500e-02, -3.44800e-02, -3.09500e-02, -4.96200e-03,  8.07900e-04],
                           [-2.54500e+00, -7.85600e-02, -9.67000e-02, -2.71300e-03,  5.09000e-02,  3.04800e-02,  3.63000e-03, -8.31000e-04],
                           [-1.32700e+00,  9.48100e-02, -1.28200e-01, -3.94700e-02, -1.38900e-02,  1.93900e-03,  2.24300e-03,  9.71800e-04],
                           [-7.15800e-01,  2.61600e-01, -3.26500e-02, -2.42200e-02, -1.03600e-02, -4.54000e-03, -7.62400e-04, -3.40400e-04],
                           [-3.69100e-01,  2.09600e-01,  6.23800e-02, -3.41400e-03, -5.07300e-03, -7.73600e-04, -6.34200e-04, -5.59100e-04],
                           [-2.52200e-01,  1.53400e-01,  5.20700e-02,  1.14100e-02,  3.62200e-03, -9.75300e-04, -3.30700e-04,  1.36700e-04],
                           [-1.65700e-01,  2.86800e-02,  3.57500e-02,  1.11300e-02,  3.32900e-03,  5.38000e-04, -2.70600e-05,  7.35700e-05],
                           [-1.00300e-01, -5.19100e-02,  1.93200e-02,  7.46600e-03,  4.68900e-04,  8.03400e-04,  3.55500e-04, -1.01800e-04],
                           [-5.54400e-02, -6.01800e-02,  8.16900e-03,  1.48000e-03, -1.31100e-03,  5.27100e-04,  9.24900e-05, -4.21100e-05],
                           [-7.09100e-02,  1.13300e-02, -2.24400e-02,  3.45400e-03,  4.45500e-03, -2.04500e-03, -4.26300e-04,  3.53900e-04]])
#  bRO2(+M) <=> bQOOH[O](+M)                           1.000e+00 0.000     0.000
#      TCHEB/ 180.000   1500.000 /
#      PCHEB/ 0.010     98.692   /
#      CHEB/ 10 8/
#      CHEB/ -9.483e+00   1.787e+00    -9.892e-02   -2.324e-02   -2.541e-03  /
#      CHEB/ 1.760e-03    8.546e-04    1.657e-05    6.939e+00    4.952e-01   /
#      CHEB/ 1.261e-01    2.601e-02    1.920e-04    -2.784e-03   -9.742e-04  /
#      CHEB/ 8.136e-05    -2.822e+00   -8.576e-02   -4.851e-02   -2.316e-03  /
#      CHEB/ 4.521e-03    2.999e-03    5.020e-04    -2.573e-04   -1.341e+00  /
#      CHEB/ 7.733e-02    -1.805e-02   -1.191e-02   -4.312e-03   -2.230e-04  /
#      CHEB/ 6.616e-04    2.999e-04    -6.419e-01   5.816e-02    2.332e-02   /
#      CHEB/ 8.838e-03    1.526e-03    -6.079e-04   -7.782e-04   -2.789e-04  /
#      CHEB/ -3.638e-01   5.081e-02    7.249e-03    2.530e-03    2.217e-03   /
#      CHEB/ 1.067e-03    2.751e-04    -8.887e-05   -1.721e-01   -3.281e-02  /
#      CHEB/ 8.653e-05    1.092e-03    5.572e-04    4.537e-04    2.068e-04   /
#      CHEB/ 7.435e-05    -1.917e-01   8.884e-03    9.022e-03    2.771e-03   /
#      CHEB/ 6.255e-04    -2.198e-04   -2.182e-04   -8.830e-05   -1.151e-01  /
#      CHEB/ -7.308e-03   1.090e-02    3.292e-03    8.248e-04    8.555e-05   /
#      CHEB/ -1.185e-04   -6.072e-05   1.464e-02    -4.726e-02   -7.778e-03  /
#      CHEB/ 1.924e-03    1.104e-03    3.651e-04    1.409e-04    -5.784e-06  /
#  bQOOHg(+M) <=> bQOOH[O](+M)                         1.000e+00 0.000     0.000
#      TCHEB/ 180.000   1500.000 /
#      PCHEB/ 0.010     98.692   /
#      CHEB/ 10 8/
#      CHEB/ -1.202e+01   2.360e+00    4.825e-02    -8.528e-02   -4.169e-02  /
#      CHEB/ -4.040e-03   4.205e-03    2.299e-03    -2.745e+00   1.468e+00   /
#      CHEB/ 3.248e-01    1.037e-01    -2.611e-03   -1.265e-02   -4.741e-03  /
#      CHEB/ -2.195e-04   -3.197e+00   -6.993e-01   -1.992e-01   4.383e-02   /
#      CHEB/ 4.124e-02    1.297e-02    -3.640e-04   -2.625e-03   -1.564e+00  /