units(length='cm', time='s', quantity='mol', act_energy='kcal/mol')

ideal_gas(name='gas',
          elements="H D T C Ci O Oi N Ne Ar He Si S F Cl Br I X",
          species="""OH             bQOOH[O]       acetone
                     H2O            balkoxyketone  ibutenol
                     trisub_epoxy   bQOOHg         CH2O
                     galkene        O2             bR
                     bQOOHa         bRO2           disub_epoxy
                     HO2""",
          reactions='all',
          initial_state=state(temperature=300.0, pressure=OneAtm))

#-------------------------------------------------------------------------------
# Element data
#-------------------------------------------------------------------------------

element(symbol='Ci', atomic_mass=13.003)
element(symbol='D', atomic_mass=2.014)
element(symbol='Oi', atomic_mass=18.0)
element(symbol='T', atomic_mass=3.016)
element(symbol='X', atomic_mass=195.083)
#-------------------------------------------------------------------------------
# Species data
#-------------------------------------------------------------------------------

species(name='OH',
        atoms='H:1 O:1',
        thermo=(NASA([10.00, 984.14],
                     [ 3.49686242E+00,  1.83973160E-04, -9.97634499E-07,
                       1.56942783E-09, -6.10128175E-13,  3.41673934E+03,
                       1.48093120E+00]),
                NASA([984.14, 3000.00],
                     [ 3.45221464E+00, -2.95124034E-04,  7.39418622E-07,
                      -2.89309866E-10,  3.53041498E-14,  3.45751599E+03,
                       1.85813897E+00])))

species(name='bQOOH[O]',
        atoms='C:4 H:9 O:3',
        thermo=(NASA([10.00, 338.69],
                     [ 3.60915854E+00,  3.39069566E-02,  2.22227265E-04,
                      -8.23527342E-07,  8.56246333E-10, -2.28054867E+04,
                       1.23284605E+01]),
                NASA([338.69, 3000.00],
                     [ 5.03198881E+00,  5.46235886E-02, -3.56935806E-05,
                       1.12371751E-08, -1.35390171E-12, -2.31170694E+04,
                       3.82760723E+00])))

species(name='acetone',
        atoms='C:3 H:6 O:1',
        thermo=(NASA([10.00, 414.35],
                     [ 3.73496166E+00,  3.05743218E-02, -1.26253585E-04,
                       3.66080978E-07, -3.31430437E-10, -2.55407148E+04,
                       8.24936012E+00]),
                NASA([414.35, 3000.00],
                     [ 1.70010292E-01,  3.28431468E-02, -1.80960132E-05,
                       4.82960690E-09, -5.02388538E-13, -2.49693317E+04,
                       2.56372653E+01])))

species(name='H2O',
        atoms='H:2 O:1',
        thermo=(NASA([10.00, 773.84],
                     [ 4.00473541E+00, -2.39729134E-04,  8.11862955E-07,
                       1.47891862E-09, -1.19783539E-12, -3.03533807E+04,
                      -9.96254147E-02]),
                NASA([773.84, 3000.00],
                     [ 3.52133374E+00,  1.05377009E-03,  6.40722099E-07,
                      -3.86240235E-10,  5.49243294E-14, -3.02424794E+04,
                       2.34173094E+00])))

species(name='balkoxyketone',
        atoms='C:4 H:7 O:2',
        thermo=(NASA([10.00, 269.93],
                     [ 3.81931151E+00,  1.68519318E-02,  2.42742224E-04,
                      -9.64821161E-07,  1.18509335E-09, -2.17245674E+04,
                       1.20521854E+01]),
                NASA([269.93, 3000.00],
                     [ 3.57555944E+00,  4.28868089E-02, -2.65390705E-05,
                       7.99659117E-09, -9.32983470E-13, -2.17930955E+04,
                       1.13957990E+01])))

species(name='ibutenol',
        atoms='C:4 H:8 O:1',
        thermo=(NASA([10.00, 135.97],
                     [ 3.95714996E+00,  5.72646980E-03,  4.63611760E-04,
                      -3.04137514E-06,  6.85019471E-09, -2.46501166E+04,
                       8.21931848E+00]),
                NASA([135.97, 3000.00],
                     [ 3.32467612E+00,  3.69033556E-02, -1.89960416E-05,
                       4.73417677E-09, -4.59705291E-13, -2.46445380E+04,
                       9.58133237E+00])))

species(name='trisub_epoxy',
        atoms='C:4 H:8 O:2',
        thermo=(NASA([10.00, 209.19],
                     [ 3.75295042E+00,  2.37546930E-02,  1.26610110E-04,
                      -4.78364365E-07,  5.79468168E-10, -3.91996578E+04,
                       1.12739684E+01]),
                NASA([209.19, 3000.00],
                     [ 2.64185254E+00,  4.50006531E-02, -2.57361066E-05,
                       7.15266054E-09, -7.72980731E-13, -3.91531722E+04,
                       1.48960343E+01])))

species(name='bQOOHg',
        atoms='C:4 H:9 O:3',
        thermo=(NASA([10.00, 441.09],
                     [ 3.56595280E+00,  3.36073467E-02,  2.03462772E-04,
                      -5.98977617E-07,  4.83271168E-10, -2.32651177E+04,
                       1.33537891E+01]),
                NASA([441.09, 3000.00],
                     [ 6.09031192E+00,  5.80517622E-02, -4.06392697E-05,
                       1.32574026E-08, -1.62501077E-12, -2.39483031E+04,
                      -1.97849715E+00])))

species(name='CH2O',
        atoms='C:1 H:2 O:1',
        thermo=(NASA([10.00, 601.31],
                     [ 4.03190845E+00, -1.93233367E-03,  8.89743345E-06,
                       2.98105926E-09, -7.90813886E-12, -1.42276270E+04,
                       3.47574660E+00]),
                NASA([601.31, 3000.00],
                     [ 1.40134195E+00,  9.48858016E-03, -4.43088317E-06,
                       9.48452194E-10, -7.43790219E-14, -1.38013869E+04,
                       1.57423780E+01])))

species(name='galkene',
        atoms='C:4 H:8 O:1',
        thermo=(NASA([10.00, 383.47],
                     [ 3.84035604E+00,  1.20378740E-02,  1.87486319E-04,
                      -5.44759148E-07,  4.80711015E-10, -1.97053069E+04,
                       1.02570291E+01]),
                NASA([383.47, 3000.00],
                     [ 4.00413385E+00,  3.79025144E-02, -2.15435710E-05,
                       6.15213311E-09, -6.97446345E-13, -1.99205962E+04,
                       6.98052628E+00])))

species(name='O2',
        atoms='O:2',
        thermo=(NASA([10.00, 605.96],
                     [ 3.50743498E+00, -4.43860349E-04,  1.45938058E-06,
                       1.61509333E-09, -2.32050052E-12, -9.24756224E+02,
                       4.72183634E+00]),
                NASA([605.96, 3000.00],
                     [ 2.87462882E+00,  2.17840991E-03, -1.18262921E-06,
                       2.86910493E-10, -2.53297146E-14, -8.19517838E+02,
                       7.69331810E+00])))

species(name='bR',
        atoms='C:4 H:9 O:1',
        thermo=(NASA([10.00, 483.43],
                     [ 3.38164846E+00,  5.97142637E-02, -1.58320095E-04,
                       3.04908893E-07, -2.13091806E-10, -1.38381885E+04,
                       1.09226843E+01]),
                NASA([483.43, 3000.00],
                     [ 2.33428824E+00,  4.22094427E-02, -2.28029290E-05,
                       6.04614564E-09, -6.30240159E-13, -1.34311065E+04,
                       1.83772893E+01])))

species(name='bQOOHa',
        atoms='C:4 H:9 O:3',
        thermo=(NASA([10.00, 390.53],
                     [ 3.54969236E+00,  3.76592474E-02,  1.76622653E-04,
                      -5.98063750E-07,  5.45069236E-10, -2.70464921E+04,
                       1.31518761E+01]),
                NASA([390.53, 3000.00],
                     [ 5.33564209E+00,  5.64935715E-02, -3.83214298E-05,
                       1.22990604E-08, -1.49549987E-12, -2.74691021E+04,
                       2.59015836E+00])))

species(name='bRO2',
        atoms='C:4 H:9 O:3',
        thermo=(NASA([10.00, 461.39],
                     [ 3.53964713E+00,  3.88723795E-02,  9.57420148E-05,
                      -2.80380499E-07,  2.09647462E-10, -3.24435482E+04,
                       1.18803618E+01]),
                NASA([461.39, 3000.00],
                     [ 3.47201723E+00,  6.00510247E-02, -4.00567321E-05,
                       1.25663813E-08, -1.49496682E-12, -3.26564950E+04,
                       9.77903975E+00])))

species(name='disub_epoxy',
        atoms='C:4 H:8 O:2',
        thermo=(NASA([10.00, 549.41],
                     [ 3.89863211E+00,  5.97532637E-03,  1.66685676E-04,
                      -3.10743768E-07,  1.78330192E-10, -3.67764928E+04,
                       1.13847308E+01]),
                NASA([549.41, 3000.00],
                     [-6.40277648E-01,  6.05960003E-02, -4.13427220E-05,
                       1.31555461E-08, -1.57685017E-12, -3.66033759E+04,
                       2.76005436E+01])))

species(name='HO2',
        atoms='H:1 O:2',
        thermo=(NASA([10.00, 891.11],
                     [ 4.02887004E+00, -1.75769289E-03,  1.08726004E-05,
                      -1.13812972E-08,  3.90113097E-12,  4.95165001E+02,
                       4.69302008E+00]),
                NASA([891.11, 3000.00],
                     [ 3.06571044E+00,  4.28505005E-03, -2.19325920E-06,
                       5.58882699E-10, -5.61246669E-14,  5.98557610E+02,
                       8.84564156E+00])))

#-------------------------------------------------------------------------------
# Reaction data
#-------------------------------------------------------------------------------

# Reaction 1
chebyshev_reaction('bQOOHg (+ M) <=> bRO2 (+ M)',
                   Tmin=180.0, Tmax=1500.0,
                   Pmin=(0.01, 'atm'), Pmax=(98.692, 'atm'),
                   coeffs=[[ 7.79500e-01,  8.06200e-01, -4.32400e-02,  1.41800e-02,  3.57400e-03, -1.71900e-03,  2.01100e-04,  1.17000e-05],
                           [-2.31000e+00,  1.29800e+00, -4.77100e-02,  2.26100e-02,  6.54700e-03, -2.82900e-03,  2.60200e-04,  8.95700e-05],
                           [-3.28500e+00,  5.77700e-01,  2.26800e-02,  1.27900e-02,  4.49800e-03, -1.33700e-03,  1.71300e-05,  1.97700e-04],
                           [-2.36700e+00, -8.06200e-02,  4.55800e-02,  8.98200e-03,  1.68300e-03,  1.92800e-04, -1.23900e-05,  1.86400e-04],
                           [-1.20900e+00, -3.57100e-01,  3.45900e-03,  8.65800e-03,  1.74000e-04,  1.04600e-03,  1.94900e-04,  2.04200e-05],
                           [-3.68200e-01, -2.69300e-01, -4.96100e-02,  3.14100e-03,  6.13600e-04,  1.20700e-03,  3.44200e-04, -1.65600e-04],
                           [-1.39400e-02, -5.10100e-02, -5.85700e-02, -7.00300e-03,  9.61400e-04,  9.74600e-04,  2.48500e-04, -2.08800e-04],
                           [ 8.64400e-03,  8.66900e-02, -2.25400e-02, -1.20300e-02, -5.49600e-04,  3.49000e-04,  6.37800e-05, -6.54900e-05],
                           [-3.16600e-02,  8.66400e-02,  1.79000e-02, -6.51300e-03, -2.76700e-03, -6.69500e-04,  1.37600e-05,  1.59500e-04],
                           [-2.61300e-02,  1.64100e-02,  2.85000e-02,  3.57900e-03, -3.11800e-03, -1.46600e-03,  7.09300e-05,  2.85500e-04]])

# Reaction 2
chebyshev_reaction('bQOOHa (+ M) <=> bRO2 (+ M)',
                   Tmin=180.0, Tmax=1500.0,
                   Pmin=(0.01, 'atm'), Pmax=(98.692, 'atm'),
                   coeffs=[[ 1.54200e+00,  8.69400e-01, -5.16200e-02, -1.00600e-02,  2.67600e-03,  5.49900e-04, -1.33200e-04,  8.23600e-06],
                           [ 3.81200e-01,  1.24400e+00, -2.34900e-02, -1.83700e-02,  3.73100e-03,  5.28500e-04, -6.18500e-05,  2.88100e-05],
                           [-2.51400e+00,  3.47800e-01,  5.24400e-02,  6.42400e-03, -2.01500e-03, -2.62100e-04,  2.37300e-04,  3.41100e-05],
                           [-1.64700e+00, -2.01000e-01,  2.40900e-02,  2.45800e-02, -8.57500e-04, -1.10400e-03,  1.34400e-04,  4.96400e-05],
                           [-8.60700e-01, -2.76400e-01, -3.31200e-02,  1.29800e-02,  3.87900e-03, -2.27800e-04, -2.30000e-04, -1.68000e-05],
                           [-4.34100e-01, -1.41800e-01, -4.92400e-02, -5.39300e-03,  2.57600e-03,  1.15600e-03, -4.94800e-05, -1.03900e-04],
                           [-1.17000e-01, -3.01600e-02, -2.53200e-02, -1.04500e-02, -1.79200e-03,  6.47200e-04,  3.77500e-04, -1.08900e-05],
                           [-4.82300e-02,  1.12700e-02, -5.50900e-04, -3.53000e-03, -3.12200e-03, -7.65000e-04,  2.52600e-04,  1.29200e-04],
                           [ 2.46900e-02,  1.59700e-02,  6.88500e-03,  2.92200e-03, -6.86900e-04, -1.15800e-03, -2.20800e-04,  8.75100e-05],
                           [-2.06900e-02,  1.30400e-02,  1.56700e-03,  3.95800e-03,  1.57800e-03, -2.80900e-04, -3.90100e-04, -6.28800e-05]])

# Reaction 3
chebyshev_reaction('bQOOH[O] (+ M) <=> bRO2 (+ M)',
                   Tmin=180.0, Tmax=1500.0,
                   Pmin=(0.01, 'atm'), Pmax=(98.692, 'atm'),
                   coeffs=[[ 4.81800e+00,  2.03000e+00, -2.68800e-02, -6.05600e-03, -2.63800e-03, -7.87000e-04, -7.46900e-05,  4.99100e-05],
                           [-5.92600e+00,  9.55500e-02, -2.07900e-02,  1.55300e-03, -5.36300e-04, -5.37900e-04, -7.43800e-05,  8.40600e-05],
                           [-2.90500e+00,  4.13400e-02, -2.76100e-02, -5.67600e-03, -2.40200e-03, -7.16300e-04, -2.46400e-05,  7.31900e-05],
                           [-1.42700e+00,  2.24000e-02, -6.74200e-03, -5.50300e-04, -4.16100e-04, -1.50900e-04,  3.48200e-05,  4.41400e-05],
                           [-6.41600e-01, -1.21600e-02, -1.68200e-03, -1.01500e-03, -5.16200e-04, -3.13300e-05,  5.78300e-05,  1.50200e-05],
                           [-3.42300e-01, -2.70600e-02,  2.49800e-03,  2.01300e-04, -4.26300e-04, -4.45800e-05,  1.92700e-05, -1.45700e-05],
                           [-1.87600e-01, -3.20800e-02, -4.81900e-05,  1.39300e-04, -5.13600e-04, -6.57700e-05,  2.77700e-05, -1.47300e-05],
                           [-6.95400e-02, -2.19000e-02, -1.48500e-03,  6.72200e-04, -2.56000e-04, -1.07200e-04,  1.98000e-06, -1.21300e-05],
                           [ 1.93700e-02, -1.12000e-02, -4.47800e-03, -2.31800e-04, -1.84200e-04, -1.20800e-04, -4.18200e-06,  1.00500e-06],
                           [-3.26800e-02,  3.84600e-03, -2.11100e-03,  2.12100e-04,  2.61300e-04, -5.57300e-05, -3.58800e-05, -2.11100e-07]])

# Reaction 4
chebyshev_reaction('O2 + bR (+ M) <=> bRO2 (+ M)',
                   Tmin=180.0, Tmax=1500.0,
                   Pmin=(0.01, 'atm'), Pmax=(98.692, 'atm'),
                   coeffs=[[ 1.16300e+01,  1.10600e+00, -2.94300e-01,  9.25900e-02, -2.36900e-02,  4.02700e-03, -2.33600e-04, -1.20200e-04],
                           [-2.66200e+00,  1.32100e+00, -1.58700e-01,  1.15200e-02,  9.23100e-03, -5.71100e-03,  1.53300e-03, -1.29900e-04],
                           [-1.70800e+00,  5.29900e-01,  3.94200e-02, -1.83700e-02,  6.35900e-03, -1.36700e-03, -1.54300e-04,  1.92300e-04],
                           [-1.03900e+00,  8.20300e-02,  6.85600e-02, -7.19600e-03,  9.96700e-04,  2.16300e-04, -2.73200e-04,  5.86800e-05],
                           [-5.84100e-01, -7.05600e-02,  3.10200e-02,  4.07400e-03, -9.28300e-04,  4.55800e-04, -4.26800e-05, -7.67200e-05],
                           [-2.95300e-01, -1.00800e-01,  8.01400e-03,  2.61000e-03, -2.55200e-04,  2.50500e-04,  1.14300e-04, -7.62900e-05],
                           [-1.32700e-01, -7.42100e-02, -5.84600e-03,  1.68100e-03, -5.19500e-04,  8.40400e-05,  1.75100e-04, -3.38400e-05],
                           [-4.57000e-02, -4.11600e-02, -8.86700e-03, -3.07300e-06, -5.69500e-05, -2.08100e-04,  1.15800e-04,  2.38300e-05],
                           [-7.28000e-03, -9.21700e-03, -1.04900e-02,  1.92300e-04, -6.86800e-05, -1.72900e-04,  1.33600e-05,  2.74800e-05],
                           [ 1.12900e-02,  3.06900e-03, -4.03900e-03, -1.87300e-03,  4.67200e-04, -1.02300e-04, -7.43800e-05,  2.90600e-05]])
#  bRO2(+M) <=> bQOOHg(+M)                             1.000e+00 0.000     0.000
#      TCHEB/ 180.000   1500.000 /
#      PCHEB/ 0.010     98.692   /
#      CHEB/ 10 8/
#      CHEB/ -1.067e+01   8.062e-01    -4.324e-02   1.418e-02    3.574e-03   /
#      CHEB/ -1.719e-03   2.011e-04    1.170e-05    7.827e+00    1.298e+00   /
#      CHEB/ -4.771e-02   2.261e-02    6.547e-03    -2.829e-03   2.602e-04   /
#      CHEB/ 8.957e-05    -3.139e+00   5.777e-01    2.268e-02    1.279e-02   /
#      CHEB/ 4.498e-03    -1.337e-03   1.713e-05    1.977e-04    -2.330e+00  /
#      CHEB/ -8.062e-02   4.558e-02    8.982e-03    1.683e-03    1.928e-04   /
#      CHEB/ -1.239e-05   1.864e-04    -1.203e+00   -3.571e-01   3.459e-03   /
#      CHEB/ 8.658e-03    1.740e-04    1.046e-03    1.949e-04    2.042e-05   /
#      CHEB/ -3.683e-01   -2.693e-01   -4.961e-02   3.141e-03    6.136e-04   /
#      CHEB/ 1.207e-03    3.442e-04    -1.656e-04   -1.452e-02   -5.101e-02  /
#      CHEB/ -5.857e-02   -7.003e-03   9.614e-04    9.746e-04    2.485e-04   /
#      CHEB/ -2.088e-04   8.192e-03    8.669e-02    -2.254e-02   -1.203e-02  /
#      CHEB/ -5.496e-04   3.490e-04    6.378e-05    -6.549e-05   -3.198e-02  /
#      CHEB/ 8.664e-02    1.790e-02    -6.513e-03   -2.767e-03   -6.695e-04  /
#      CHEB/ 1.376e-05    1.595e-04    -2.632e-02   1.641e-02    2.850e-02   /
#      CHEB/ 3.579e-03    -3.118e-03   -1.466e-03   7.093e-05    2.855e-04   /

# Reaction 5
chebyshev_reaction('bQOOHa (+ M) <=> bQOOHg (+ M)',
                   Tmin=180.0, Tmax=1500.0,
                   Pmin=(0.01, 'atm'), Pmax=(98.692, 'atm'),
                   coeffs=[[-9.84700e+00,  3.81400e-01, -1.91000e-01, -5.89700e-03,  9.00200e-03, -1.04500e-03,  8.64000e-05,  8.71100e-05],
                           [ 2.90100e+00,  2.59000e+00,  8.77100e-02, -2.04000e-02, -1.91800e-03,  8.26200e-04,  7.99000e-04, -1.45600e-04],
                           [-3.88900e+00,  2.74000e-01,  1.78200e-01,  6.76100e-02, -6.60000e-03, -4.96000e-03,  4.47500e-04,  5.15200e-04],
                           [-2.76200e+00, -4.92200e-01, -7.62700e-04,  5.19200e-02,  1.43400e-02, -1.57000e-03, -1.71000e-03,  1.66700e-04],
                           [-1.24500e+00, -4.62100e-01, -8.39100e-02, -4.68700e-03,  9.95100e-03,  5.36800e-03, -1.18000e-04, -5.30800e-04],
                           [-3.12300e-01, -2.19400e-01, -7.72900e-02, -2.33500e-02, -3.55300e-03,  4.22000e-03,  1.63300e-03, -1.93200e-04],
                           [ 3.13100e-02,  1.99800e-02, -4.08600e-02, -1.68900e-02, -6.96600e-03,  9.68100e-05,  1.04800e-03,  1.51300e-04],
                           [ 4.88800e-02,  1.35500e-01,  3.98800e-03, -6.15200e-03, -4.29000e-03, -1.91500e-03, -1.24400e-04,  1.53000e-04],
                           [-1.62400e-02,  1.05800e-01,  3.43800e-02,  3.70600e-03, -1.50100e-03, -2.04500e-03, -5.94000e-04,  1.37900e-04],
                           [-4.63100e-02,  1.16300e-02,  3.15300e-02,  1.00400e-02,  2.90100e-04, -1.30600e-03, -3.96400e-04,  1.28300e-04]])

# Reaction 6
chebyshev_reaction('bQOOH[O] (+ M) <=> bQOOHg (+ M)',
                   Tmin=180.0, Tmax=1500.0,
                   Pmin=(0.01, 'atm'), Pmax=(98.692, 'atm'),
                   coeffs=[[-7.42200e+00,  1.01700e+00,  8.47300e-02,  6.78100e-02,  1.54600e-02, -3.41000e-03, -3.02400e-03, -1.48200e-03],
                           [-3.32400e+00,  1.10400e+00, -1.60800e-01, -2.01100e-02,  1.71900e-04,  2.00500e-03,  3.98800e-03,  1.53100e-03],
                           [-3.69700e+00,  4.84500e-01, -4.05900e-02, -2.18000e-02, -9.97100e-03, -4.91200e-03, -1.30700e-04,  8.58700e-04],
                           [-2.56400e+00, -6.30500e-02,  5.59000e-02,  1.22700e-02,  1.16400e-03, -8.52300e-04, -1.03600e-03, -2.58200e-04],
                           [-1.17200e+00, -3.29500e-01,  2.06300e-02,  1.77200e-02,  3.38500e-03,  2.05200e-03,  1.52600e-04, -1.38900e-04],
                           [-3.82600e-01, -2.55600e-01, -4.19500e-02,  7.79000e-03,  2.39000e-03,  1.98200e-03,  5.12300e-04, -1.29700e-04],
                           [-5.21900e-02, -5.45500e-02, -6.19000e-02, -7.73300e-03,  9.68600e-04,  1.35500e-03,  4.60900e-04, -1.17900e-04],
                           [-4.94300e-04,  8.92000e-02, -2.27700e-02, -1.23700e-02, -1.18100e-03,  1.24900e-05, -8.49200e-05, -8.52400e-05],
                           [ 1.56700e-02,  8.51700e-02,  1.56600e-02, -7.34300e-03, -3.17400e-03, -7.52400e-04,  2.27800e-06,  1.55400e-04],
                           [-8.05000e-02,  1.89200e-02,  2.92900e-02,  4.34600e-03, -2.82000e-03, -1.39100e-03,  4.44200e-05,  2.36500e-04]])

# Reaction 7
chebyshev_reaction('O2 + bR (+ M) <=> bQOOHg (+ M)',
                   Tmin=180.0, Tmax=1500.0,
                   Pmin=(0.01, 'atm'), Pmax=(98.692, 'atm'),
                   coeffs=[[ 4.93800e+00, -2.17600e-01, -2.11200e-01,  4.27000e-02, -9.09800e-03,  1.13100e-03,  1.35700e-04, -2.44100e-04],
                           [-2.98400e+00,  2.18700e+00,  1.14300e-02, -3.54400e-02,  1.00800e-02, -2.31900e-03,  2.10700e-04, -2.73200e-05],
                           [-2.83400e+00,  6.29600e-01,  1.77200e-01, -2.17600e-02,  2.14600e-04,  1.16200e-04, -3.03300e-04,  2.19700e-04],
                           [-1.72200e+00, -1.77100e-01,  1.03000e-01,  8.93800e-03, -2.21700e-03, -1.50400e-04, -5.99700e-05,  2.41200e-04],
                           [-6.67500e-01, -3.30400e-01, -5.20700e-03,  1.37900e-02, -1.25000e-05, -1.80600e-04,  1.37400e-04,  1.11400e-04],
                           [-7.94700e-02, -1.83600e-01, -5.27300e-02,  2.59100e-03,  1.96500e-03,  3.83000e-04, -2.22500e-05, -6.12000e-05],
                           [ 9.01000e-02,  1.50800e-02, -4.59300e-02, -7.33100e-03,  1.86600e-03,  9.41900e-04, -2.22200e-04, -2.32500e-04],
                           [ 4.91500e-02,  1.13100e-01, -7.18500e-03, -1.02300e-02,  1.41400e-05,  8.05900e-04, -2.09300e-04, -1.93900e-04],
                           [-2.48400e-02,  8.99700e-02,  2.54000e-02, -3.36300e-03, -2.43900e-03, -1.91800e-04,  5.38600e-05,  2.97300e-05],
                           [-4.86200e-02,  5.19000e-03,  3.15600e-02,  5.36100e-03, -2.80300e-03, -1.13000e-03,  2.25000e-04,  2.45400e-04]])
#  bRO2(+M) <=> bQOOHa(+M)                             1.000e+00 0.000     0.000
#      TCHEB/ 180.000   1500.000 /
#      PCHEB/ 0.010     98.692   /
#      CHEB/ 10 8/
#      CHEB/ -4.903e+00   8.694e-01    -5.162e-02   -1.006e-02   2.676e-03   /
#      CHEB/ 5.499e-04    -1.332e-04   8.236e-06    6.356e+00    1.244e+00   /
#      CHEB/ -2.349e-02   -1.837e-02   3.731e-03    5.285e-04    -6.185e-05  /
#      CHEB/ 2.881e-05    -2.459e+00   3.478e-01    5.244e-02    6.424e-03   /
#      CHEB/ -2.015e-03   -2.621e-04   2.373e-04    3.411e-05    -1.645e+00  /
#      CHEB/ -2.010e-01   2.409e-02    2.458e-02    -8.575e-04   -1.104e-03  /
#      CHEB/ 1.344e-04    4.964e-05    -8.655e-01   -2.764e-01   -3.312e-02  /
#      CHEB/ 1.298e-02    3.879e-03    -2.278e-04   -2.300e-04   -1.680e-05  /
#      CHEB/ -4.369e-01   -1.418e-01   -4.924e-02   -5.393e-03   2.576e-03   /
#      CHEB/ 1.156e-03    -4.948e-05   -1.039e-04   -1.183e-01   -3.016e-02  /
#      CHEB/ -2.532e-02   -1.045e-02   -1.792e-03   6.472e-04    3.775e-04   /
#      CHEB/ -1.089e-05   -4.896e-02   1.127e-02    -5.509e-04   -3.530e-03  /
#      CHEB/ -3.122e-03   -7.650e-04   2.526e-04    1.292e-04    2.434e-02   /
#      CHEB/ 1.597e-02    6.885e-03    2.922e-03    -6.869e-04   -1.158e-03  /
#      CHEB/ -2.208e-04   8.751e-05    -2.081e-02   1.304e-02    1.567e-03   /
#      CHEB/ 3.958e-03    1.578e-03    -2.809e-04   -3.901e-04   -6.288e-05  /
#  bQOOHg(+M) <=> bQOOHa(+M)                           1.000e+00 0.000     0.000
#      TCHEB/ 180.000   1500.000 /
#      PCHEB/ 0.010     98.692   /
#      CHEB/ 10 8/
#      CHEB/ -4.843e+00   3.814e-01    -1.910e-01   -5.897e-03   9.002e-03   /
#      CHEB/ -1.045e-03   8.640e-05    8.711e-05    -1.261e+00   2.590e+00   /
#      CHEB/ 8.771e-02    -2.040e-02   -1.918e-03   8.262e-04    7.990e-04   /
#      CHEB/ -1.456e-04   -3.980e+00   2.740e-01    1.782e-01    6.761e-02   /
#      CHEB/ -6.600e-03   -4.960e-03   4.475e-04    5.152e-04    -2.798e+00  /
#      CHEB/ -4.922e-01   -7.627e-04   5.192e-02    1.434e-02    -1.570e-03  /
#      CHEB/ -1.710e-03   1.667e-04    -1.255e+00   -4.621e-01   -8.391e-02  /
#      CHEB/ -4.687e-03   9.951e-03    5.368e-03    -1.180e-04   -5.308e-04  /
#      CHEB/ -3.149e-01   -2.194e-01   -7.729e-02   -2.335e-02   -3.553e-03  /
#      CHEB/ 4.220e-03    1.633e-03    -1.932e-04   3.054e-02    1.998e-02   /
#      CHEB/ -4.086e-02   -1.689e-02   -6.966e-03   9.681e-05    1.048e-03   /
#      CHEB/ 1.513e-04    4.861e-02    1.355e-01    3.988e-03    -6.152e-03  /
#      CHEB/ -4.290e-03   -1.915e-03   -1.244e-04   1.530e-04    -1.627e-02  /
#      CHEB/ 1.058e-01    3.438e-02    3.706e-03    -1.501e-03   -2.045e-03  /
#      CHEB/ -5.940e-04   1.379e-04    -4.624e-02   1.163e-02    3.153e-02   /
#      CHEB/ 1.004e-02    2.901e-04    -1.306e-03   -3.964e-04   1.283e-04   /

# Reaction 8
chebyshev_reaction('bQOOH[O] (+ M) <=> bQOOHa (+ M)',
                   Tmin=180.0, Tmax=1500.0,
                   Pmin=(0.01, 'atm'), Pmax=(98.692, 'atm'),
                   coeffs=[[-2.01700e+00,  1.10700e+00, -2.28200e-02,  3.32800e-02,  9.65600e-03, -5.52200e-04, -1.84700e-03, -9.03400e-04],
                           [-4.47400e+00,  1.24600e+00, -1.05300e-01, -3.64600e-02,  1.21200e-03,  2.15000e-03,  1.57400e-03,  7.24400e-04],
                           [-3.11800e+00,  2.43200e-01, -2.07100e-03, -2.83200e-02, -1.34000e-02, -1.25100e-03,  7.70600e-04,  6.07400e-04],
                           [-1.91000e+00, -1.73900e-01,  2.45700e-02,  2.40600e-02, -1.99400e-03, -1.87500e-03, -3.62400e-04, -1.27000e-04],
                           [-8.90900e-01, -2.12800e-01, -3.04300e-02,  1.86300e-02,  6.62900e-03, -1.63500e-05, -4.90300e-04, -1.75600e-04],
                           [-4.33400e-01, -1.06000e-01, -4.28800e-02, -2.51300e-03,  4.45800e-03,  1.66700e-03, -4.14200e-05, -1.82200e-04],
                           [-1.80500e-01, -2.79800e-02, -2.41700e-02, -1.11400e-02, -1.69100e-03,  1.11700e-03,  6.14700e-04,  2.41600e-05],
                           [-4.99600e-02,  1.33200e-02,  1.24200e-03, -4.01900e-03, -3.42100e-03, -7.64100e-04,  2.66000e-04,  1.40100e-04],
                           [ 4.81000e-02,  1.40500e-02,  5.12000e-03,  1.56900e-03, -1.29100e-03, -1.13700e-03, -1.99200e-04,  9.25000e-05],
                           [-4.13900e-02,  1.59100e-02,  5.17700e-03,  4.60000e-03,  1.49200e-03, -3.80100e-04, -4.48800e-04, -1.09300e-04]])

# Reaction 9
chebyshev_reaction('O2 + bR (+ M) <=> bQOOHa (+ M)',
                   Tmin=180.0, Tmax=1500.0,
                   Pmin=(0.01, 'atm'), Pmax=(98.692, 'atm'),
                   coeffs=[[ 7.15000e+00,  1.55800e+00, -4.91600e-01, -5.33700e-02, -6.27200e-04,  2.24800e-02, -9.44900e-04, -4.50700e-03],
                           [-2.95900e+00,  1.38600e+00,  2.34100e-01,  6.33900e-02, -2.22500e-02, -3.05700e-02,  7.00000e-03,  6.41600e-03],
                           [-2.09100e+00,  1.65400e-01,  1.43500e-01,  1.61500e-02,  3.14100e-02, -7.26800e-03, -6.26500e-03, -2.52300e-04],
                           [-1.25500e+00, -2.41600e-01,  5.56000e-02, -1.96200e-02,  2.09100e-02,  5.44400e-03, -1.50100e-03, -1.49100e-03],
                           [-6.21400e-01, -2.22000e-01,  8.64900e-03, -2.71900e-02,  2.62900e-03,  4.81900e-03,  1.23000e-03,  1.38800e-04],
                           [-2.37600e-01, -1.17900e-01,  9.97400e-03, -2.15200e-02, -5.75200e-03,  1.58200e-03,  5.32200e-04,  8.49000e-04],
                           [-6.03900e-02, -3.25700e-02,  1.68600e-02, -6.37800e-03, -7.78700e-03, -4.77400e-05, -4.71300e-04,  5.88900e-04],
                           [ 4.43100e-03,  2.26000e-03,  1.74900e-02,  5.64000e-03, -5.02400e-03, -4.89000e-04, -9.09200e-04,  2.12500e-04],
                           [ 1.11800e-02,  1.01800e-02,  4.96100e-03,  1.19400e-02, -1.40700e-03,  2.86300e-05, -9.42000e-04, -7.10600e-05],
                           [ 5.10900e-03,  6.55200e-04, -3.12200e-03,  7.99000e-03,  1.25800e-03,  8.66000e-04, -5.39600e-04, -2.37900e-04]])
#  bRO2(+M) <=> bQOOH[O](+M)                           1.000e+00 0.000     0.000
#      TCHEB/ 180.000   1500.000 /
#      PCHEB/ 0.010     98.692   /
#      CHEB/ 10 8/
#      CHEB/ -7.765e+00   2.030e+00    -2.688e-02   -6.056e-03   -2.638e-03  /
#      CHEB/ -7.870e-04   -7.469e-05   4.991e-05    4.428e+00    9.555e-02   /
#      CHEB/ -2.079e-02   1.553e-03    -5.363e-04   -5.379e-04   -7.438e-05  /
#      CHEB/ 8.406e-05    -2.911e+00   4.134e-02    -2.761e-02   -5.676e-03  /
#      CHEB/ -2.402e-03   -7.163e-04   -2.464e-05   7.319e-05    -1.449e+00  /
#      CHEB/ 2.240e-02    -6.742e-03   -5.503e-04   -4.161e-04   -1.509e-04  /
#      CHEB/ 3.482e-05    4.414e-05    -6.524e-01   -1.216e-02   -1.682e-03  /
#      CHEB/ -1.015e-03   -5.162e-04   -3.133e-05   5.783e-05    1.502e-05   /
#      CHEB/ -3.463e-01   -2.706e-02   2.498e-03    2.013e-04    -4.263e-04  /
#      CHEB/ -4.458e-05   1.927e-05    -1.457e-05   -1.891e-01   -3.208e-02  /
#      CHEB/ -4.819e-05   1.393e-04    -5.136e-04   -6.577e-05   2.777e-05   /
#      CHEB/ -1.473e-05   -7.017e-02   -2.190e-02   -1.485e-03   6.722e-04   /
#      CHEB/ -2.560e-04   -1.072e-04   1.980e-06    -1.213e-05   1.919e-02   /
#      CHEB/ -1.120e-02   -4.478e-03   -2.318e-04   -1.842e-04   -1.208e-04  /
#      CHEB/ -4.182e-06   1.005e-06    -3.268e-02   3.846e-03    -2.111e-03  /
#      CHEB/ 2.121e-04    2.613e-04    -5.573e-05   -3.588e-05   -2.111e-07  /
#  bQOOHg(+M) <=> bQOOH[O](+M)                         1.000e+00 0.000     0.000
#      TCHEB/ 180.000   1500.000 /
#      PCHEB/ 0.010     98.692   /
#      CHEB/ 10 8/
#      CHEB/ -8.557e+00   1.017e+00    8.473e-02    6.781e-02    1.546e-02   /
#      CHEB/ -3.410e-03   -3.024e-03   -1.482e-03   -3.107e+00   1.104e+00   /
#      CHEB/ -1.608e-01   -2.011e-02   1.719e-04    2.005e-03    3.988e-03   /
#      CHEB/ 1.531e-03    -3.849e+00   4.845e-01    -4.059e-02   -2.180e-02  /
#      CHEB/ -9.971e-03   -4.912e-03   -1.307e-04   8.587e-04    -2.622e+00  /