units(length='cm', time='s', quantity='mol', act_energy='kcal/mol')

ideal_gas(name='gas',
          elements="H D T C Ci O Oi N Ne Ar He Si S F Cl Br I X",
          species="""OH             bQOOH[O]       acetone
                     H2O            balkoxyketone  ibutenol
                     trisub_epoxy   bQOOHg         CH2O
                     galkene        O2             bR
                     bQOOHa         bRO2           disub_epoxy
                     HO2""",
          reactions='all',
          initial_state=state(temperature=300.0, pressure=OneAtm))

#-------------------------------------------------------------------------------
# Element data
#-------------------------------------------------------------------------------

element(symbol='Ci', atomic_mass=13.003)
element(symbol='D', atomic_mass=2.014)
element(symbol='Oi', atomic_mass=18.0)
element(symbol='T', atomic_mass=3.016)
element(symbol='X', atomic_mass=195.083)
#-------------------------------------------------------------------------------
# Species data
#-------------------------------------------------------------------------------

species(name='OH',
        atoms='H:1 O:1',
        thermo=(NASA([10.00, 984.14],
                     [ 3.49686242E+00,  1.83973160E-04, -9.97634499E-07,
                       1.56942783E-09, -6.10128175E-13,  3.41673934E+03,
                       1.48093120E+00]),
                NASA([984.14, 3000.00],
                     [ 3.45221464E+00, -2.95124034E-04,  7.39418622E-07,
                      -2.89309866E-10,  3.53041498E-14,  3.45751599E+03,
                       1.85813897E+00])))

species(name='bQOOH[O]',
        atoms='C:4 H:9 O:3',
        thermo=(NASA([10.00, 338.69],
                     [ 3.60915854E+00,  3.39069566E-02,  2.22227265E-04,
                      -8.23527342E-07,  8.56246333E-10, -2.13139960E+04,
                       1.23284605E+01]),
                NASA([338.69, 3000.00],
                     [ 5.03198881E+00,  5.46235886E-02, -3.56935806E-05,
                       1.12371751E-08, -1.35390171E-12, -2.16255787E+04,
                       3.82760723E+00])))

species(name='acetone',
        atoms='C:3 H:6 O:1',
        thermo=(NASA([10.00, 414.35],
                     [ 3.73496166E+00,  3.05743218E-02, -1.26253585E-04,
                       3.66080978E-07, -3.31430437E-10, -3.03341266E+04,
                       8.24936012E+00]),
                NASA([414.35, 3000.00],
                     [ 1.70010292E-01,  3.28431468E-02, -1.80960132E-05,
                       4.82960690E-09, -5.02388538E-13, -2.97627435E+04,
                       2.56372653E+01])))

species(name='H2O',
        atoms='H:2 O:1',
        thermo=(NASA([10.00, 773.84],
                     [ 4.00473541E+00, -2.39729134E-04,  8.11862955E-07,
                       1.47891862E-09, -1.19783539E-12, -3.03533807E+04,
                      -9.96254147E-02]),
                NASA([773.84, 3000.00],
                     [ 3.52133374E+00,  1.05377009E-03,  6.40722099E-07,
                      -3.86240235E-10,  5.49243294E-14, -3.02424794E+04,
                       2.34173094E+00])))

species(name='balkoxyketone',
        atoms='C:4 H:7 O:2',
        thermo=(NASA([10.00, 269.93],
                     [ 3.81931151E+00,  1.68519318E-02,  2.42742224E-04,
                      -9.64821161E-07,  1.18509335E-09, -1.98794796E+04,
                       1.20521854E+01]),
                NASA([269.93, 3000.00],
                     [ 3.57555944E+00,  4.28868089E-02, -2.65390705E-05,
                       7.99659117E-09, -9.32983470E-13, -1.99480077E+04,
                       1.13957990E+01])))

species(name='ibutenol',
        atoms='C:4 H:8 O:1',
        thermo=(NASA([10.00, 135.97],
                     [ 3.95714996E+00,  5.72646980E-03,  4.63611760E-04,
                      -3.04137514E-06,  6.85019471E-09, -2.27409587E+04,
                       8.21931848E+00]),
                NASA([135.97, 3000.00],
                     [ 3.32467612E+00,  3.69033556E-02, -1.89960416E-05,
                       4.73417677E-09, -4.59705291E-13, -2.27353801E+04,
                       9.58133237E+00])))

species(name='trisub_epoxy',
        atoms='C:4 H:8 O:2',
        thermo=(NASA([10.00, 209.19],
                     [ 3.75295042E+00,  2.37546930E-02,  1.26610110E-04,
                      -4.78364365E-07,  5.79468168E-10, -4.04162214E+04,
                       1.12739684E+01]),
                NASA([209.19, 3000.00],
                     [ 2.64185254E+00,  4.50006531E-02, -2.57361066E-05,
                       7.15266054E-09, -7.72980731E-13, -4.03697359E+04,
                       1.48960343E+01])))

species(name='bQOOHg',
        atoms='C:4 H:9 O:3',
        thermo=(NASA([10.00, 441.09],
                     [ 3.56595280E+00,  3.36073467E-02,  2.03462772E-04,
                      -5.98977617E-07,  4.83271168E-10, -2.36323926E+04,
                       1.33537891E+01]),
                NASA([441.09, 3000.00],
                     [ 6.09031192E+00,  5.80517622E-02, -4.06392697E-05,
                       1.32574026E-08, -1.62501077E-12, -2.43155781E+04,
                      -1.97849715E+00])))

species(name='CH2O',
        atoms='C:1 H:2 O:1',
        thermo=(NASA([10.00, 601.31],
                     [ 4.03190845E+00, -1.93233367E-03,  8.89743345E-06,
                       2.98105926E-09, -7.90813886E-12, -1.42276270E+04,
                       3.47574660E+00]),
                NASA([601.31, 3000.00],
                     [ 1.40134195E+00,  9.48858016E-03, -4.43088317E-06,
                       9.48452194E-10, -7.43790219E-14, -1.38013869E+04,
                       1.57423780E+01])))

species(name='galkene',
        atoms='C:4 H:8 O:1',
        thermo=(NASA([10.00, 383.47],
                     [ 3.84035604E+00,  1.20378740E-02,  1.87486319E-04,
                      -5.44759148E-07,  4.80711015E-10, -2.04292056E+04,
                       1.02570291E+01]),
                NASA([383.47, 3000.00],
                     [ 4.00413385E+00,  3.79025144E-02, -2.15435710E-05,
                       6.15213311E-09, -6.97446345E-13, -2.06444949E+04,
                       6.98052628E+00])))

species(name='O2',
        atoms='O:2',
        thermo=(NASA([10.00, 605.96],
                     [ 3.50743498E+00, -4.43860349E-04,  1.45938058E-06,
                       1.61509333E-09, -2.32050052E-12, -9.24756224E+02,
                       4.72183634E+00]),
                NASA([605.96, 3000.00],
                     [ 2.87462882E+00,  2.17840991E-03, -1.18262921E-06,
                       2.86910493E-10, -2.53297146E-14, -8.19517838E+02,
                       7.69331810E+00])))

species(name='bR',
        atoms='C:4 H:9 O:1',
        thermo=(NASA([10.00, 483.43],
                     [ 3.38164846E+00,  5.97142637E-02, -1.58320095E-04,
                       3.04908893E-07, -2.13091806E-10, -1.21941093E+04,
                       1.09226843E+01]),
                NASA([483.43, 3000.00],
                     [ 2.33428824E+00,  4.22094427E-02, -2.28029290E-05,
                       6.04614564E-09, -6.30240159E-13, -1.17870274E+04,
                       1.83772893E+01])))

species(name='bQOOHa',
        atoms='C:4 H:9 O:3',
        thermo=(NASA([10.00, 390.53],
                     [ 3.54969236E+00,  3.76592474E-02,  1.76622653E-04,
                      -5.98063750E-07,  5.45069236E-10, -2.57219570E+04,
                       1.31518761E+01]),
                NASA([390.53, 3000.00],
                     [ 5.33564209E+00,  5.64935715E-02, -3.83214298E-05,
                       1.22990604E-08, -1.49549987E-12, -2.61445669E+04,
                       2.59015836E+00])))

species(name='bRO2',
        atoms='C:4 H:9 O:3',
        thermo=(NASA([10.00, 461.39],
                     [ 3.53964713E+00,  3.88723795E-02,  9.57420148E-05,
                      -2.80380499E-07,  2.09647462E-10, -3.19706592E+04,
                       1.18803618E+01]),
                NASA([461.39, 3000.00],
                     [ 3.47201723E+00,  6.00510247E-02, -4.00567321E-05,
                       1.25663813E-08, -1.49496682E-12, -3.21836059E+04,
                       9.77903975E+00])))

species(name='disub_epoxy',
        atoms='C:4 H:8 O:2',
        thermo=(NASA([10.00, 549.41],
                     [ 3.89863211E+00,  5.97532637E-03,  1.66685676E-04,
                      -3.10743768E-07,  1.78330192E-10, -3.67731818E+04,
                       1.13847308E+01]),
                NASA([549.41, 3000.00],
                     [-6.40277648E-01,  6.05960003E-02, -4.13427220E-05,
                       1.31555461E-08, -1.57685017E-12, -3.66000650E+04,
                       2.76005436E+01])))

species(name='HO2',
        atoms='H:1 O:2',
        thermo=(NASA([10.00, 891.11],
                     [ 4.02887004E+00, -1.75769289E-03,  1.08726004E-05,
                      -1.13812972E-08,  3.90113097E-12,  4.95165001E+02,
                       4.69302008E+00]),
                NASA([891.11, 3000.00],
                     [ 3.06571044E+00,  4.28505005E-03, -2.19325920E-06,
                       5.58882699E-10, -5.61246669E-14,  5.98557610E+02,
                       8.84564156E+00])))

#-------------------------------------------------------------------------------
# Reaction data
#-------------------------------------------------------------------------------

# Reaction 1
chebyshev_reaction('bQOOHg (+ M) <=> bRO2 (+ M)',
                   Tmin=180.0, Tmax=1500.0,
                   Pmin=(0.01, 'atm'), Pmax=(98.692, 'atm'),
                   coeffs=[[ 2.11700e-01,  7.73100e-01, -5.38700e-02,  3.63400e-03,  4.75900e-03, -4.95200e-04, -2.65500e-04,  5.19800e-05],
                           [ 1.07500e+00,  1.24000e+00, -5.37200e-02,  5.95700e-03,  6.83900e-03, -6.47300e-04, -3.12500e-04,  4.53900e-05],
                           [-2.45400e+00,  5.66700e-01,  3.87400e-02,  9.40700e-03,  6.18000e-04,  5.94400e-06,  1.13500e-04, -4.27100e-05],
                           [-1.76400e+00, -1.45700e-02,  6.64700e-02,  1.87900e-02, -2.91200e-03, -2.79400e-05,  3.73400e-04, -3.75200e-05],
                           [-1.16100e+00, -2.58600e-01,  1.94900e-02,  2.08000e-02, -3.38700e-04, -4.35400e-04,  2.01300e-04,  5.51700e-05],
                           [-5.88500e-01, -2.29300e-01, -3.69700e-02,  8.54000e-03,  3.91100e-03,  3.66000e-07, -1.62100e-04,  8.54800e-05],
                           [-2.26100e-01, -1.08100e-01, -5.32600e-02, -7.73900e-03,  3.87800e-03,  1.10900e-03, -1.73100e-04, -5.40400e-06],
                           [-4.21600e-02, -1.45800e-02, -3.26600e-02, -1.46400e-02, -2.86000e-04,  1.40500e-03,  2.31400e-04, -7.34100e-05],
                           [ 1.57500e-02,  2.59600e-02, -4.35200e-03, -9.83100e-03, -3.85400e-03,  3.05300e-04,  5.03800e-04, -7.04300e-07],
                           [ 3.28300e-02,  3.16600e-02,  1.13800e-02, -5.94000e-04, -3.75500e-03, -1.12000e-03,  2.44200e-04,  1.16000e-04]])

# Reaction 2
chebyshev_reaction('bQOOHa (+ M) <=> bRO2 (+ M)',
                   Tmin=180.0, Tmax=1500.0,
                   Pmin=(0.01, 'atm'), Pmax=(98.692, 'atm'),
                   coeffs=[[-4.10900e+00,  2.89200e+00,  2.42800e-01, -1.39400e-02, -3.96800e-02, -1.19000e-02,  2.87100e-03,  3.20500e-03],
                           [-3.02800e+00, -8.03100e-01, -2.02500e-01,  7.28500e-02,  6.11500e-02,  1.37900e-02, -5.11800e-03, -4.18300e-03],
                           [-2.60100e+00,  1.10200e-01, -4.81400e-02, -3.29500e-02, -7.69300e-03,  3.16300e-03,  3.09100e-03,  5.29600e-04],
                           [-9.78900e-01,  7.55000e-02, -1.94600e-03, -8.54400e-03, -5.32300e-03, -6.68400e-04,  4.77100e-04,  3.47300e-04],
                           [-7.23500e-01,  7.49600e-02,  2.74400e-02,  3.84500e-03, -4.97400e-03, -3.59600e-03, -8.14000e-04,  3.40300e-04],
                           [-2.61200e-01, -5.31000e-02, -2.28400e-02, -4.65300e-03,  5.08200e-04,  5.28900e-04,  5.59500e-05, -1.54400e-04],
                           [-2.05500e-01, -2.55000e-02, -4.56700e-03, -2.15800e-03, -8.00500e-04, -9.93200e-05,  6.09200e-05,  3.14100e-05],
                           [-5.09200e-02, -3.00800e-02, -1.42300e-03,  1.82500e-04,  9.99000e-05,  2.49700e-04, -1.73500e-04, -9.50000e-05],
                           [-1.02800e-01, -1.08800e-03,  6.97800e-03,  1.18700e-03, -4.14200e-04, -8.16400e-04, -1.81800e-04,  1.42300e-04],
                           [ 2.98100e-02, -2.33700e-02, -1.68200e-02, -1.40400e-03,  1.23200e-03,  1.16900e-03,  3.98500e-04, -2.29200e-04]])

# Reaction 3
chebyshev_reaction('bQOOH[O] (+ M) <=> bRO2 (+ M)',
                   Tmin=180.0, Tmax=1500.0,
                   Pmin=(0.01, 'atm'), Pmax=(98.692, 'atm'),
                   coeffs=[[ 4.90900e+00,  2.00200e+00, -2.39800e-02, -7.88100e-03, -2.53000e-03, -2.59500e-04,  1.13000e-04,  2.59600e-05],
                           [-6.12100e+00,  8.24000e-02,  3.94800e-03,  5.16900e-03,  4.13700e-04, -4.02200e-05,  9.69400e-05,  1.15700e-04],
                           [-2.78600e+00,  1.27500e-02, -2.47000e-02, -8.11700e-03, -2.85000e-03, -3.57900e-04,  1.40300e-04,  6.98800e-05],
                           [-1.25000e+00,  6.10800e-03, -1.16100e-02, -4.07400e-03, -1.40400e-03, -1.19600e-04,  1.32600e-04,  7.70400e-05],
                           [-7.32700e-01, -7.19700e-03, -3.94000e-03, -2.14300e-03, -7.92000e-04, -1.00800e-04,  7.42400e-05,  7.08500e-05],
                           [-3.33300e-01, -3.11100e-02, -7.53300e-03, -3.88300e-03, -1.08000e-03, -7.00800e-05,  7.68500e-05,  5.16000e-05],
                           [-1.69800e-01, -3.00800e-02, -3.23700e-03, -1.78900e-03, -5.78800e-04, -5.41400e-05,  2.91800e-05,  3.44700e-05],
                           [-9.10000e-02, -2.83200e-02, -4.35500e-03, -1.46100e-03, -4.59200e-04, -1.94700e-05,  2.82300e-05,  2.27200e-05],
                           [-4.97200e-02, -1.58900e-02, -2.76800e-03, -3.17300e-04, -2.24800e-04, -5.92400e-05, -8.95800e-06,  5.65900e-06],
                           [ 3.28700e-02, -8.85100e-03, -4.79900e-03, -9.89000e-04, -3.15300e-04, -5.13500e-05,  8.02900e-06,  1.37900e-06]])

# Reaction 4
chebyshev_reaction('O2 + bR (+ M) <=> bRO2 (+ M)',
                   Tmin=180.0, Tmax=1500.0,
                   Pmin=(0.01, 'atm'), Pmax=(98.692, 'atm'),
                   coeffs=[[ 1.24800e+01,  7.22400e-01, -1.11500e-01,  2.59800e-02, -6.66600e-03,  1.31400e-03, -1.80400e-04,  9.41300e-06],
                           [-2.29800e+00,  1.07200e+00, -8.84500e-02,  8.48100e-03, -2.86100e-04, -7.20400e-04,  3.35500e-04, -8.96200e-05],
                           [-1.57100e+00,  5.27900e-01,  2.64300e-02, -7.53300e-03,  1.24500e-03, -5.33500e-04,  1.58800e-04, -2.28500e-05],
                           [-1.02200e+00,  1.50900e-01,  5.04800e-02, -1.83700e-03,  2.25500e-04, -3.38400e-04,  5.48000e-05,  1.33200e-05],
                           [-6.10000e-01, -2.00400e-02,  2.93900e-02,  2.91300e-03,  6.39500e-04, -1.92100e-04, -5.70300e-05,  2.36700e-05],
                           [-3.37200e-01, -6.96100e-02,  8.42500e-03,  1.94100e-03,  9.62700e-04,  1.10500e-04, -8.26500e-05, -4.53400e-07],
                           [-1.68400e-01, -6.68300e-02, -2.47600e-03,  1.91000e-04,  4.25800e-04,  2.61000e-04, -1.65200e-05, -1.47900e-05],
                           [-6.94100e-02, -4.77700e-02, -6.27000e-03, -5.66000e-04, -6.29100e-05,  1.41400e-04,  3.60400e-05, -6.54400e-06],
                           [-1.62700e-02, -2.59100e-02, -7.17200e-03, -5.59100e-04, -2.22400e-04, -2.00200e-07,  2.86300e-05,  2.77300e-06],
                           [ 8.49200e-03, -7.77500e-03, -6.07800e-03, -6.71700e-04, -1.45000e-04, -6.45100e-05,  8.19400e-06,  2.45200e-06]])
#  bRO2(+M) <=> bQOOHg(+M)                             1.000e+00 0.000     0.000
#      TCHEB/ 180.000   1500.000 /
#      PCHEB/ 0.010     98.692   /
#      CHEB/ 10 8/
#      CHEB/ -1.010e+01   7.731e-01    -5.387e-02   3.634e-03    4.759e-03   /
#      CHEB/ -4.952e-04   -2.655e-04   5.198e-05    1.032e+01    1.240e+00   /
#      CHEB/ -5.372e-02   5.957e-03    6.839e-03    -6.473e-04   -3.125e-04  /
#      CHEB/ 4.539e-05    -2.308e+00   5.667e-01    3.874e-02    9.407e-03   /
#      CHEB/ 6.180e-04    5.944e-06    1.135e-04    -4.271e-05   -1.727e+00  /
#      CHEB/ -1.457e-02   6.647e-02    1.879e-02    -2.912e-03   -2.794e-05  /
#      CHEB/ 3.734e-04    -3.752e-05   -1.155e+00   -2.586e-01   1.949e-02   /
#      CHEB/ 2.080e-02    -3.387e-04   -4.354e-04   2.013e-04    5.517e-05   /
#      CHEB/ -5.886e-01   -2.293e-01   -3.697e-02   8.540e-03    3.911e-03   /
#      CHEB/ 3.660e-07    -1.621e-04   8.548e-05    -2.267e-01   -1.081e-01  /
#      CHEB/ -5.326e-02   -7.739e-03   3.878e-03    1.109e-03    -1.731e-04  /
#      CHEB/ -5.404e-06   -4.261e-02   -1.458e-02   -3.266e-02   -1.464e-02  /
#      CHEB/ -2.860e-04   1.405e-03    2.314e-04    -7.341e-05   1.543e-02   /
#      CHEB/ 2.596e-02    -4.352e-03   -9.831e-03   -3.854e-03   3.053e-04   /
#      CHEB/ 5.038e-04    -7.043e-07   3.265e-02    3.166e-02    1.138e-02   /
#      CHEB/ -5.940e-04   -3.755e-03   -1.120e-03   2.442e-04    1.160e-04   /

# Reaction 5
chebyshev_reaction('bQOOHa (+ M) <=> bQOOHg (+ M)',
                   Tmin=180.0, Tmax=1500.0,
                   Pmin=(0.01, 'atm'), Pmax=(98.692, 'atm'),
                   coeffs=[[-1.71900e+01,  1.93600e+00,  3.81100e-01,  8.31800e-02, -3.11800e-03, -6.31600e-03,  1.52600e-03,  1.71300e-03],
                           [ 3.12100e+00,  1.05400e-01, -4.35100e-01, -2.15800e-03,  4.16900e-02,  9.49200e-03, -3.61900e-03, -2.20100e-03],
                           [-2.50400e+00,  5.83900e-01, -4.84500e-02, -4.11400e-02, -1.41800e-02,  1.01900e-03,  2.51400e-03,  2.34000e-04],
                           [-1.57900e+00,  5.34000e-02,  6.60000e-02,  1.19200e-02, -8.56800e-03, -1.54200e-03,  1.98500e-04,  2.83100e-05],
                           [-1.12100e+00, -1.80200e-01,  4.34300e-02,  2.62500e-02, -3.51000e-03, -3.03800e-03, -1.68900e-04,  5.93000e-04],
                           [-5.69200e-01, -2.35700e-01, -4.71700e-02,  1.16500e-02,  7.63600e-03,  1.32300e-03,  3.09900e-05, -5.01900e-05],
                           [-2.16300e-01, -9.30200e-02, -5.32200e-02, -7.15400e-03,  4.27200e-03,  1.13000e-03, -1.67600e-04, -1.16100e-05],
                           [ 6.89000e-03, -1.55800e-02, -3.43100e-02, -1.50100e-02, -1.34300e-04,  1.55400e-03,  1.29800e-06, -1.92700e-04],
                           [ 2.02500e-03,  3.96600e-02,  2.21900e-04, -1.08600e-02, -4.69600e-03, -5.65000e-04,  3.53500e-04,  1.69800e-04],
                           [-1.71200e-03,  2.69700e-02,  1.99900e-03, -2.76700e-04, -2.01200e-03,  2.92500e-05,  5.56200e-04, -1.47800e-04]])

# Reaction 6
chebyshev_reaction('bQOOH[O] (+ M) <=> bQOOHg (+ M)',
                   Tmin=180.0, Tmax=1500.0,
                   Pmin=(0.01, 'atm'), Pmax=(98.692, 'atm'),
                   coeffs=[[-6.42400e+00,  1.15100e+00,  1.62500e-01,  8.83900e-02,  1.69200e-02, -8.72700e-03, -7.34500e-03, -2.32300e-03],
                           [-2.10100e+00,  9.34100e-01, -2.28600e-01, -4.15600e-02,  1.41600e-02,  1.64400e-02,  8.85200e-03,  1.83300e-03],
                           [-2.62900e+00,  4.73400e-01, -3.76400e-02, -3.35000e-02, -2.10200e-02, -7.50800e-03, -7.84300e-04,  1.23300e-03],
                           [-1.73000e+00, -3.36000e-02,  4.23700e-02,  3.23500e-03, -1.27500e-02, -4.39100e-03, -9.14300e-04, -8.40100e-05],
                           [-1.22600e+00, -2.15100e-01,  4.22300e-02,  3.26900e-02,  2.44800e-03, -1.12500e-03, -1.07200e-03, -7.82800e-04],
                           [-5.33800e-01, -2.13600e-01, -2.76300e-02,  1.77200e-02,  9.31100e-03,  2.34900e-03,  3.17100e-04, -2.13700e-04],
                           [-2.11000e-01, -9.65900e-02, -4.85000e-02, -4.34500e-03,  5.37800e-03,  1.84800e-03,  3.03200e-04,  2.92000e-04],
                           [-4.60800e-02, -2.08900e-02, -3.84400e-02, -1.68000e-02, -5.46200e-04,  1.89400e-03,  7.71100e-04,  2.44700e-04],
                           [-1.45700e-02,  2.87000e-02, -4.45800e-03, -1.07100e-02, -4.90100e-03, -4.13400e-04,  2.72400e-04,  6.09800e-05],
                           [ 7.59400e-02,  2.28100e-02,  6.00900e-03, -2.29000e-03, -3.79400e-03, -9.80300e-04,  2.18700e-04, -1.03800e-05]])

# Reaction 7
chebyshev_reaction('O2 + bR (+ M) <=> bQOOHg (+ M)',
                   Tmin=180.0, Tmax=1500.0,
                   Pmin=(0.01, 'atm'), Pmax=(98.692, 'atm'),
                   coeffs=[[ 5.94800e+00,  4.34300e-01, -4.74300e-01,  5.85300e-02,  1.60200e-02, -1.18600e-02,  2.25100e-03,  7.79700e-04],
                           [-1.68400e+00,  1.96700e+00,  1.90400e-01, -1.13200e-01, -5.88200e-04,  1.59600e-02, -5.37100e-03, -4.39200e-04],
                           [-1.77000e+00,  4.85200e-01,  2.57800e-01, -3.73600e-03, -2.27100e-02,  1.53900e-03,  3.45200e-03, -1.16700e-03],
                           [-1.26000e+00, -1.48800e-01,  1.22900e-01,  3.44700e-02, -4.22200e-03, -5.70600e-03,  1.22700e-03,  6.42000e-04],
                           [-6.84300e-01, -2.48100e-01,  2.72600e-03,  2.11000e-02,  8.20700e-03, -2.63800e-03, -1.22000e-03,  5.13600e-04],
                           [-2.91900e-01, -1.63600e-01, -4.26900e-02, -5.40300e-04,  7.54100e-03,  1.33300e-03, -1.11400e-03, -1.15700e-04],
                           [-7.54600e-02, -5.68400e-02, -3.91000e-02, -1.25300e-02,  2.32200e-03,  2.63900e-03, -2.04900e-04, -2.79200e-04],
                           [ 1.15100e-02,  1.25300e-02, -1.59800e-02, -1.33000e-02, -2.46300e-03,  1.97800e-03,  4.57200e-04, -1.57900e-04],
                           [ 3.42000e-02,  3.71900e-02,  5.75000e-03, -6.29700e-03, -4.88300e-03,  4.82600e-04,  6.10900e-04,  5.44600e-06],
                           [ 2.15400e-02,  3.31400e-02,  1.53800e-02,  2.13800e-03, -3.81800e-03, -1.01200e-03,  2.73600e-04,  1.26200e-04]])
#  bRO2(+M) <=> bQOOHa(+M)                             1.000e+00 0.000     0.000
#      TCHEB/ 180.000   1500.000 /
#      PCHEB/ 0.010     98.692   /
#      CHEB/ 10 8/
#      CHEB/ -1.170e+01   2.892e+00    2.428e-01    -1.394e-02   -3.968e-02  /
#      CHEB/ -1.190e-02   2.871e-03    3.205e-03    3.851e+00    -8.031e-01  /
#      CHEB/ -2.025e-01   7.285e-02    6.115e-02    1.379e-02    -5.118e-03  /
#      CHEB/ -4.183e-03   -2.546e+00   1.102e-01    -4.814e-02   -3.295e-02  /
#      CHEB/ -7.693e-03   3.163e-03    3.091e-03    5.296e-04    -9.776e-01  /
#      CHEB/ 7.550e-02    -1.946e-03   -8.544e-03   -5.323e-03   -6.684e-04  /
#      CHEB/ 4.771e-04    3.473e-04    -7.283e-01   7.496e-02    2.744e-02   /
#      CHEB/ 3.845e-03    -4.974e-03   -3.596e-03   -8.140e-04   3.403e-04   /
#      CHEB/ -2.640e-01   -5.310e-02   -2.284e-02   -4.653e-03   5.082e-04   /
#      CHEB/ 5.289e-04    5.595e-05    -1.544e-04   -2.068e-01   -2.550e-02  /
#      CHEB/ -4.567e-03   -2.158e-03   -8.005e-04   -9.932e-05   6.092e-05   /
#      CHEB/ 3.141e-05    -5.164e-02   -3.008e-02   -1.423e-03   1.825e-04   /
#      CHEB/ 9.990e-05    2.497e-04    -1.735e-04   -9.500e-05   -1.031e-01  /
#      CHEB/ -1.088e-03   6.978e-03    1.187e-03    -4.142e-04   -8.164e-04  /
#      CHEB/ -1.818e-04   1.423e-04    2.969e-02    -2.337e-02   -1.682e-02  /
#      CHEB/ -1.404e-03   1.232e-03    1.169e-03    3.985e-04    -2.292e-04  /
#  bQOOHg(+M) <=> bQOOHa(+M)                           1.000e+00 0.000     0.000
#      TCHEB/ 180.000   1500.000 /
#      PCHEB/ 0.010     98.692   /
#      CHEB/ 10 8/
#      CHEB/ -1.448e+01   1.936e+00    3.811e-01    8.318e-02    -3.118e-03  /
#      CHEB/ -6.316e-03   1.526e-03    1.713e-03    7.545e-01    1.054e-01   /
#      CHEB/ -4.351e-01   -2.158e-03   4.169e-02    9.492e-03    -3.619e-03  /
#      CHEB/ -2.201e-03   -2.594e+00   5.839e-01    -4.845e-02   -4.114e-02  /
#      CHEB/ -1.418e-02   1.019e-03    2.514e-03    2.340e-04    -1.615e+00  /
#      CHEB/ 5.340e-02    6.600e-02    1.192e-02    -8.568e-03   -1.542e-03  /
#      CHEB/ 1.985e-04    2.831e-05    -1.132e+00   -1.802e-01   4.343e-02   /
#      CHEB/ 2.625e-02    -3.510e-03   -3.038e-03   -1.689e-04   5.930e-04   /
#      CHEB/ -5.718e-01   -2.357e-01   -4.717e-02   1.165e-02    7.636e-03   /
#      CHEB/ 1.323e-03    3.099e-05    -5.019e-05   -2.170e-01   -9.302e-02  /
#      CHEB/ -5.322e-02   -7.154e-03   4.272e-03    1.130e-03    -1.676e-04  /
#      CHEB/ -1.161e-05   6.619e-03    -1.558e-02   -3.431e-02   -1.501e-02  /
#      CHEB/ -1.343e-04   1.554e-03    1.298e-06    -1.927e-04   2.000e-03   /
#      CHEB/ 3.966e-02    2.219e-04    -1.086e-02   -4.696e-03   -5.650e-04  /
#      CHEB/ 3.535e-04    1.698e-04    -1.645e-03   2.697e-02    1.999e-03   /
#      CHEB/ -2.767e-04   -2.012e-03   2.925e-05    5.562e-04    -1.478e-04  /

# Reaction 8
chebyshev_reaction('bQOOH[O] (+ M) <=> bQOOHa (+ M)',
                   Tmin=180.0, Tmax=1500.0,
                   Pmin=(0.01, 'atm'), Pmax=(98.692, 'atm'),
                   coeffs=[[-9.88300e+00,  3.12100e+00,  3.74000e-01,  4.60300e-02, -2.36100e-02, -1.16000e-02,  5.30500e-04,  1.89700e-03],
                           [-6.52800e+00, -9.81000e-01, -3.30500e-01,  2.26800e-02,  4.92300e-02,  1.57800e-02, -1.79500e-03, -2.54400e-03],
                           [-2.97600e+00,  6.66900e-02, -9.34200e-02, -5.35000e-02, -1.68600e-02,  5.87500e-05,  2.16700e-03,  2.85400e-04],
                           [-1.13500e+00,  9.02500e-02, -3.73800e-03, -9.08500e-03, -6.79100e-03, -1.56600e-03,  1.05700e-04,  2.59400e-04],
                           [-7.42300e-01,  6.85500e-02,  1.98100e-02,  1.86200e-03, -4.92900e-03, -2.95200e-03, -3.33400e-04,  5.62100e-04],
                           [-3.47700e-01, -4.19500e-02, -1.63600e-02, -1.35300e-03,  1.61100e-03,  7.10800e-04, -1.76100e-05, -2.22900e-04],
                           [-1.85100e-01, -2.26400e-02, -2.27800e-03, -1.25500e-03, -6.30700e-04, -8.78000e-05,  7.47900e-05,  6.26900e-05],
                           [-5.72600e-02, -3.41200e-02, -3.12100e-03, -1.73500e-04,  1.05500e-04,  3.30700e-04, -1.53300e-04, -1.08500e-04],
                           [-7.16900e-02, -7.94300e-03,  2.44400e-03, -4.78700e-04, -8.92700e-04, -7.92200e-04, -7.86100e-05,  2.03200e-04],
                           [-1.73300e-03, -1.57400e-02, -1.33300e-02,  2.25400e-04,  1.43400e-03,  9.76900e-04,  2.29800e-04, -3.05800e-04]])

# Reaction 9
chebyshev_reaction('O2 + bR (+ M) <=> bQOOHa (+ M)',
                   Tmin=180.0, Tmax=1500.0,
                   Pmin=(0.01, 'atm'), Pmax=(98.692, 'atm'),
                   coeffs=[[-2.18000e+00,  1.87200e+00,  3.51000e-01,  1.12300e-01, -5.40800e-03,  5.37300e-04,  4.88600e-03,  3.40800e-03],
                           [-2.59000e+00, -1.36500e-01, -4.59700e-01, -2.05100e-02,  2.71100e-02,  2.35200e-03, -6.92800e-03, -4.60700e-03],
                           [-1.67900e+00,  4.91900e-01, -4.06500e-02, -6.61600e-02, -1.22700e-02,  9.33600e-05,  2.90400e-03,  5.13900e-04],
                           [-8.41600e-01,  1.82800e-01,  7.26100e-02, -1.02700e-02, -1.70500e-03, -6.15200e-04,  7.91300e-04,  4.76800e-04],
                           [-5.57500e-01,  2.72000e-02,  6.77700e-02,  5.38900e-03, -1.60600e-03, -2.98100e-03, -4.68400e-04,  5.03800e-04],
                           [-3.04100e-01, -1.02100e-01,  6.02400e-03,  1.79200e-03,  4.24500e-03,  9.11600e-04, -1.21600e-04, -2.16800e-04],
                           [-1.47200e-01, -6.93200e-02,  3.00500e-03, -4.64000e-04,  7.58900e-04,  2.75300e-04, -2.96400e-05,  4.52100e-06],
                           [-1.20800e-02, -5.93000e-02, -4.40400e-03, -9.10700e-04,  9.62000e-05,  4.33600e-04, -1.92300e-04, -9.33700e-05],
                           [-2.44600e-02, -1.78500e-02, -8.50400e-04, -9.95000e-04, -1.11000e-03, -7.03600e-04, -1.26400e-04,  1.97700e-04],
                           [-2.31600e-02, -1.56900e-02, -1.55200e-02,  4.40400e-05,  1.30300e-03,  1.14100e-03,  2.83200e-04, -2.45200e-04]])
#  bRO2(+M) <=> bQOOH[O](+M)                           1.000e+00 0.000     0.000
#      TCHEB/ 180.000   1500.000 /
#      PCHEB/ 0.010     98.692   /
#      CHEB/ 10 8/
#      CHEB/ -9.051e+00   2.002e+00    -2.398e-02   -7.881e-03   -2.530e-03  /
#      CHEB/ -2.595e-04   1.130e-04    2.596e-05    5.314e+00    8.240e-02   /
#      CHEB/ 3.948e-03    5.169e-03    4.137e-04    -4.022e-05   9.694e-05   /
#      CHEB/ 1.157e-04    -2.792e+00   1.275e-02    -2.470e-02   -8.117e-03  /
#      CHEB/ -2.850e-03   -3.579e-04   1.403e-04    6.988e-05    -1.271e+00  /
#      CHEB/ 6.108e-03    -1.161e-02   -4.074e-03   -1.404e-03   -1.196e-04  /
#      CHEB/ 1.326e-04    7.704e-05    -7.435e-01   -7.197e-03   -3.940e-03  /
#      CHEB/ -2.143e-03   -7.920e-04   -1.008e-04   7.424e-05    7.085e-05   /
#      CHEB/ -3.373e-01   -3.111e-02   -7.533e-03   -3.883e-03   -1.080e-03  /
#      CHEB/ -7.008e-05   7.685e-05    5.160e-05    -1.713e-01   -3.008e-02  /
#      CHEB/ -3.237e-03   -1.789e-03   -5.788e-04   -5.414e-05   2.918e-05   /
#      CHEB/ 3.447e-05    -9.163e-02   -2.832e-02   -4.355e-03   -1.461e-03  /
#      CHEB/ -4.592e-04   -1.947e-05   2.823e-05    2.272e-05    -4.990e-02  /
#      CHEB/ -1.589e-02   -2.768e-03   -3.173e-04   -2.248e-04   -5.924e-05  /
#      CHEB/ -8.958e-06   5.659e-06    3.288e-02    -8.851e-03   -4.799e-03  /
#      CHEB/ -9.890e-04   -3.153e-04   -5.135e-05   8.029e-06    1.379e-06   /
#  bQOOHg(+M) <=> bQOOH[O](+M)                         1.000e+00 0.000     0.000
#      TCHEB/ 180.000   1500.000 /
#      PCHEB/ 0.010     98.692   /
#      CHEB/ 10 8/
#      CHEB/ -1.007e+01   1.151e+00    1.625e-01    8.839e-02    1.692e-02   /
#      CHEB/ -8.727e-03   -7.345e-03   -2.323e-03   8.943e-02    9.341e-01   /
#      CHEB/ -2.286e-01   -4.156e-02   1.416e-02    1.644e-02    8.852e-03   /
#      CHEB/ 1.833e-03    -2.781e+00   4.734e-01    -3.764e-02   -3.350e-02  /
#      CHEB/ -2.102e-02   -7.508e-03   -7.843e-04   1.233e-03    -1.789e+00  /