units(length='cm', time='s', quantity='mol', act_energy='kcal/mol')

ideal_gas(name='gas',
          elements="H D T C Ci O Oi N Ne Ar He Si S F Cl Br I X",
          species="""aOOHbalkene      OH               ibutanal
                     aR               performic_acid   disub_c4ether
                     aQOOHb           H                aadduct
                     trisub_epoxy     ibutenol         aQOOH[O]
                     ipropyl          aRO2             O2
                     formic_acid      propene          aQOOHg
                     ibut_peroxyacid  HO2              CH3""",
          reactions='all',
          initial_state=state(temperature=300.0, pressure=OneAtm))

#-------------------------------------------------------------------------------
# Element data
#-------------------------------------------------------------------------------

element(symbol='Ci', atomic_mass=13.003)
element(symbol='D', atomic_mass=2.014)
element(symbol='Oi', atomic_mass=18.0)
element(symbol='T', atomic_mass=3.016)
element(symbol='X', atomic_mass=195.083)
#-------------------------------------------------------------------------------
# Species data
#-------------------------------------------------------------------------------

species(name='aOOHbalkene',
        atoms='C:3 H:6 O:3',
        thermo=(NASA([10.00, 497.41],
                     [ 3.76691735E+00,  1.51417956E-02,  1.85499431E-04,
                      -4.61303214E-07,  3.27678941E-10, -3.07850756E+04,
                       1.09903968E+01]),
                NASA([497.41, 3000.00],
                     [ 6.20882781E+00,  4.08866173E-02, -2.89934946E-05,
                       9.60428979E-09, -1.19355432E-12, -3.15894049E+04,
                      -4.72842811E+00])))

species(name='OH',
        atoms='H:1 O:1',
        thermo=(NASA([10.00, 984.14],
                     [ 3.49686242E+00,  1.83973160E-04, -9.97634499E-07,
                       1.56942783E-09, -6.10128175E-13,  3.41673934E+03,
                       1.48093120E+00]),
                NASA([984.14, 3000.00],
                     [ 3.45221464E+00, -2.95124034E-04,  7.39418622E-07,
                      -2.89309866E-10,  3.53041498E-14,  3.45751599E+03,
                       1.85813897E+00])))

species(name='ibutanal',
        atoms='C:4 H:8 O:1',
        thermo=(NASA([10.00, 683.88],
                     [ 3.57157346E+00,  3.36936906E-02, -1.78475021E-05,
                       1.31946716E-08, -7.58008388E-12, -2.52711340E+04,
                       1.05595084E+01]),
                NASA([683.88, 3000.00],
                     [ 1.29043622E+00,  4.14804229E-02, -2.27411206E-05,
                       6.08619500E-09, -6.38995128E-13, -2.48292149E+04,
                       2.16477430E+01])))

species(name='aR',
        atoms='C:4 H:9 O:1',
        thermo=(NASA([10.00, 455.22],
                     [ 3.59625500E+00,  3.38947981E-02,  7.37257079E-06,
                      -3.99275335E-08,  2.49019944E-11, -1.38557554E+04,
                       1.18269265E+01]),
                NASA([455.22, 3000.00],
                     [ 2.49586309E+00,  4.35639890E-02, -2.44887770E-05,
                       6.73363769E-09, -7.23862433E-13, -1.37555722E+04,
                       1.62696907E+01])))

species(name='performic_acid',
        atoms='C:1 H:2 O:3',
        thermo=(NASA([10.00, 590.95],
                     [ 3.92633851E+00,  4.24517168E-03,  6.71106764E-05,
                      -1.36545385E-07,  8.03337864E-11, -3.63028176E+04,
                       8.06485813E+00]),
                NASA([590.95, 3000.00],
                     [ 4.39992934E+00,  1.85411415E-02, -1.36005501E-05,
                       4.62292431E-09, -5.88463603E-13, -3.66643888E+04,
                       3.44353230E+00])))

species(name='disub_c4ether',
        atoms='C:4 H:8 O:2',
        thermo=(NASA([10.00, 413.50],
                     [ 3.78241323E+00,  1.89501763E-02,  8.65302396E-05,
                      -1.80580575E-07,  1.13656264E-10, -3.94742116E+04,
                       1.09982450E+01]),
                NASA([413.50, 3000.00],
                     [ 4.29420885E-01,  5.13851903E-02, -3.11292293E-05,
                       9.11498284E-09, -1.03192718E-12, -3.91969173E+04,
                       2.42134976E+01])))

species(name='aQOOHb',
        atoms='C:4 H:9 O:3',
        thermo=(NASA([10.00, 412.78],
                     [ 3.15498836E+00,  8.55068303E-02, -2.35307993E-04,
                       4.71983261E-07, -3.62709267E-10, -2.95423967E+04,
                       1.52522123E+01]),
                NASA([412.78, 3000.00],
                     [ 4.18099845E+00,  5.26168288E-02, -3.23998410E-05,
                       9.59389339E-09, -1.09464519E-12, -2.94316018E+04,
                       1.35782328E+01])))

species(name='H',
        atoms='H:1',
        thermo=(NASA([10.00, 794.01],
                     [ 2.50000000E+00,  1.99051163E-15, -1.19089508E-17,
                       2.10805655E-20, -1.11017699E-23,  2.54725594E+04,
                      -4.61279342E-01]),
                NASA([794.01, 3000.00],
                     [ 2.50000000E+00,  1.52667235E-14, -1.58445285E-17,
                       6.63088600E-21, -9.62111674E-25,  2.54725594E+04,
                      -4.61279342E-01])))

species(name='aadduct',
        atoms='C:4 H:9 O:3',
        thermo=(NASA([10.00, 449.84],
                     [ 3.06901904E+00,  9.20724491E-02, -2.68085092E-04,
                       5.15249897E-07, -3.68046586E-10, -3.16948005E+04,
                       1.46591735E+01]),
                NASA([449.84, 3000.00],
                     [ 4.11210745E+00,  5.16955724E-02, -2.97401041E-05,
                       8.32758939E-09, -9.08861448E-13, -3.14739595E+04,
                       1.39578825E+01])))

species(name='trisub_epoxy',
        atoms='C:4 H:8 O:2',
        thermo=(NASA([10.00, 209.19],
                     [ 3.75295042E+00,  2.37546930E-02,  1.26610110E-04,
                      -4.78364365E-07,  5.79468168E-10, -4.12586559E+04,
                       1.12739684E+01]),
                NASA([209.19, 3000.00],
                     [ 2.64185254E+00,  4.50006531E-02, -2.57361066E-05,
                       7.15266054E-09, -7.72980731E-13, -4.12121704E+04,
                       1.48960343E+01])))

species(name='ibutenol',
        atoms='C:4 H:8 O:1',
        thermo=(NASA([10.00, 135.97],
                     [ 3.95714996E+00,  5.72646980E-03,  4.63611760E-04,
                      -3.04137514E-06,  6.85019471E-09, -2.45295913E+04,
                       8.21931848E+00]),
                NASA([135.97, 3000.00],
                     [ 3.32467612E+00,  3.69033556E-02, -1.89960416E-05,
                       4.73417677E-09, -4.59705291E-13, -2.45240126E+04,
                       9.58133237E+00])))

species(name='aQOOH[O]',
        atoms='C:4 H:9 O:3',
        thermo=(NASA([10.00, 488.36],
                     [ 3.54559533E+00,  3.89536133E-02,  8.47689703E-05,
                      -2.45147486E-07,  1.76157259E-10, -2.52364022E+04,
                       1.34685910E+01]),
                NASA([488.36, 3000.00],
                     [ 3.94214913E+00,  5.71928314E-02, -3.72516212E-05,
                       1.15209013E-08, -1.35808341E-12, -2.55313631E+04,
                       9.21628964E+00])))

species(name='ipropyl',
        atoms='C:3 H:7',
        thermo=(NASA([10.00, 421.76],
                     [ 3.73943775E+00,  3.10070157E-02, -1.51196908E-04,
                       4.35367329E-07, -3.85565052E-10,  9.49213457E+03,
                       7.79448918E+00]),
                NASA([421.76, 3000.00],
                     [-4.74526725E-01,  3.20862468E-02, -1.67340747E-05,
                       4.21365136E-09, -4.13155573E-13,  1.01934458E+04,
                       2.85865912E+01])))

species(name='aRO2',
        atoms='C:4 H:9 O:3',
        thermo=(NASA([10.00, 670.36],
                     [ 3.45405325E+00,  4.74751311E-02,  9.77507759E-06,
                      -6.31019603E-08,  3.75500067E-11, -3.39199804E+04,
                       1.39284976E+01]),
                NASA([670.36, 3000.00],
                     [ 5.04137652E+00,  5.19952978E-02, -3.16472789E-05,
                       9.22798587E-09, -1.03598915E-12, -3.44471729E+04,
                       4.56056770E+00])))

species(name='O2',
        atoms='O:2',
        thermo=(NASA([10.00, 605.96],
                     [ 3.50743498E+00, -4.43860349E-04,  1.45938058E-06,
                       1.61509333E-09, -2.32050052E-12, -9.24756224E+02,
                       4.72183634E+00]),
                NASA([605.96, 3000.00],
                     [ 2.87462882E+00,  2.17840991E-03, -1.18262921E-06,
                       2.86910493E-10, -2.53297146E-14, -8.19517838E+02,
                       7.69331810E+00])))

species(name='formic_acid',
        atoms='C:1 H:2 O:2',
        thermo=(NASA([10.00, 741.38],
                     [ 4.06855785E+00, -4.74562133E-03,  4.71797900E-05,
                      -6.07490052E-08,  2.51286794E-11, -4.66880837E+04,
                       6.53681035E+00]),
                NASA([741.38, 3000.00],
                     [ 1.13645847E+00,  1.74953124E-02, -1.08112403E-05,
                       3.08075326E-09, -3.34892658E-13, -4.64297918E+04,
                       1.86149484E+01])))

species(name='propene',
        atoms='C:3 H:6',
        thermo=(NASA([10.00, 519.53],
                     [ 3.98723879E+00,  4.72040503E-04,  6.51776229E-05,
                      -9.89891002E-08,  4.91141123E-11,  2.45672498E+03,
                       6.98071210E+00]),
                NASA([519.53, 3000.00],
                     [ 3.79893331E-01,  2.82457690E-02, -1.50108430E-05,
                       3.90894069E-09, -4.00521928E-13,  2.83155233E+03,
                       2.20218922E+01])))

species(name='aQOOHg',
        atoms='C:4 H:9 O:3',
        thermo=(NASA([10.00, 455.48],
                     [ 3.62522127E+00,  2.83222320E-02,  2.08527447E-04,
                      -5.67427418E-07,  4.35169138E-10, -2.57039327E+04,
                       1.26617758E+01]),
                NASA([455.48, 3000.00],
                     [ 5.13914202E+00,  5.96270859E-02, -4.14435328E-05,
                       1.34202375E-08, -1.63474553E-12, -2.63044890E+04,
                       1.46991116E+00])))

species(name='ibut_peroxyacid',
        atoms='C:4 H:8 O:3',
        thermo=(NASA([10.00, 1386.21],
                     [ 3.50995385E+00,  4.78670384E-02, -2.40781384E-05,
                       3.71046938E-09,  3.85442115E-13, -4.77359392E+04,
                       1.22017268E+01]),
                NASA([1386.21, 3000.00],
                     [ 1.24543146E+01,  3.02396862E-02, -1.38577031E-05,
                       3.05328904E-09, -2.63982457E-13, -5.10018225E+04,
                      -3.67061828E+01])))

species(name='HO2',
        atoms='H:1 O:2',
        thermo=(NASA([10.00, 891.11],
                     [ 4.02887004E+00, -1.75769289E-03,  1.08726004E-05,
                      -1.13812972E-08,  3.90113097E-12,  4.95165001E+02,
                       4.69302008E+00]),
                NASA([891.11, 3000.00],
                     [ 3.06571044E+00,  4.28505005E-03, -2.19325920E-06,
                       5.58882699E-10, -5.61246669E-14,  5.98557610E+02,
                       8.84564156E+00])))

species(name='CH3',
        atoms='C:1 H:3',
        thermo=(NASA([10.00, 616.77],
                     [ 3.98929952E+00,  5.45150461E-04,  9.01320092E-06,
                      -1.08320497E-08,  4.38985879E-12,  1.65859883E+04,
                       2.22446886E-01]),
                NASA([616.77, 3000.00],
                     [ 3.35928237E+00,  4.63117126E-03, -9.24365433E-07,
                      -9.02514624E-11,  3.56905106E-14,  1.66637014E+04,
                       2.95743732E+00])))

#-------------------------------------------------------------------------------
# Reaction data
#-------------------------------------------------------------------------------

# Reaction 1
chebyshev_reaction('aQOOH[O] (+ M) <=> aQOOHb (+ M)',
                   Tmin=180.0, Tmax=1500.0,
                   Pmin=(0.01, 'atm'), Pmax=(98.692, 'atm'),
                   coeffs=[[ 2.58400e-01,  1.25200e+00, -4.91600e-01, -3.04500e-03,  5.60600e-03, -9.25400e-04,  2.66600e-04,  2.22700e-04],
                           [ 4.63600e+00,  1.71600e+00, -3.29900e-02, -6.48500e-02,  1.43900e-02,  4.66900e-03, -1.55300e-03, -4.08200e-04],
                           [ 4.82600e-01,  3.00000e-01,  8.19700e-02, -5.39800e-02, -1.33700e-02,  9.49200e-03,  2.94800e-03, -8.63300e-04],
                           [-7.25200e-02,  1.74700e-01,  7.89300e-02, -2.26200e-02, -1.80900e-02,  1.96200e-04,  2.65500e-03,  4.80600e-04],
                           [-6.00600e-02,  6.31100e-02,  4.15200e-02,  8.27700e-03, -8.96500e-03, -3.39700e-03,  7.35900e-04,  5.35600e-04],
                           [-3.46500e-02, -2.84000e-02,  1.69200e-02,  1.53500e-02, -2.75600e-03, -3.29300e-03,  1.46800e-04,  4.44100e-04],
                           [-2.85500e-02, -3.03000e-02,  3.65200e-03,  9.65600e-03,  1.28300e-03, -2.27300e-03, -4.95400e-04,  3.86200e-04],
                           [-1.04000e-02,  1.08900e-03, -2.89000e-03,  2.30100e-03,  2.79800e-03, -6.57200e-04, -7.57000e-04,  5.36300e-05],
                           [ 9.50100e-04,  7.78500e-03, -3.71900e-03, -1.21000e-03,  1.61500e-03,  6.89100e-04, -4.71300e-04, -1.80600e-04],
                           [ 5.81400e-03,  4.64600e-03, -6.64700e-05, -1.08100e-03,  1.75900e-04,  5.21100e-04,  2.50400e-05, -1.68000e-04]])

# Reaction 2
chebyshev_reaction('aQOOHg (+ M) <=> aQOOHb (+ M)',
                   Tmin=180.0, Tmax=1500.0,
                   Pmin=(0.01, 'atm'), Pmax=(98.692, 'atm'),
                   coeffs=[[-1.53600e+00,  2.55700e-02, -5.56800e-01,  3.24700e-02,  1.57500e-02, -3.03300e-03, -3.48900e-04,  2.81100e-04],
                           [ 5.85900e+00,  2.06200e+00, -2.68700e-01, -9.94300e-02,  1.55400e-02,  8.13900e-03, -1.23900e-03, -4.99800e-04],
                           [ 4.35100e-01,  6.39400e-01,  1.36800e-01, -8.68900e-02, -1.57200e-02,  7.69200e-03,  2.25200e-03, -5.41400e-04],
                           [-2.12900e-01,  2.83300e-01,  1.08000e-01, -2.97700e-02, -1.63400e-02,  1.69900e-03,  1.64800e-03,  2.06000e-04],
                           [-9.34100e-02,  8.91700e-02,  6.27700e-02,  4.63200e-03, -1.30800e-02, -1.04000e-03,  1.17000e-03,  7.27200e-05],
                           [-6.86900e-02, -1.75900e-02,  3.11600e-02,  1.63200e-02, -5.71600e-03, -3.23100e-03,  6.14800e-04,  2.86500e-04],
                           [-5.08100e-02, -2.01600e-02,  6.38900e-03,  1.14500e-02,  1.14800e-03, -2.68300e-03, -3.52700e-04,  3.24000e-04],
                           [-1.84600e-02,  1.20600e-03, -2.31200e-03,  3.33900e-03,  2.55800e-03, -5.77700e-04, -5.83300e-04,  1.64400e-05],
                           [-1.86700e-04,  7.70500e-03, -1.65100e-03, -6.99100e-04,  1.33500e-03,  5.07800e-04, -2.51100e-04, -1.35200e-04],
                           [ 3.42000e-03,  2.07500e-03, -2.20800e-04, -5.93000e-04,  2.32600e-04,  3.67800e-04,  4.44800e-05, -6.28600e-05]])

# Reaction 3
chebyshev_reaction('aRO2 (+ M) <=> aQOOHb (+ M)',
                   Tmin=180.0, Tmax=1500.0,
                   Pmin=(0.01, 'atm'), Pmax=(98.692, 'atm'),
                   coeffs=[[-6.11200e+00,  1.09700e+00, -2.81100e-01,  3.23900e-04,  1.08400e-02, -4.96800e-04, -2.23200e-04,  4.78300e-05],
                           [ 1.08900e+01,  1.52800e+00, -2.96400e-01, -4.08900e-02,  1.25100e-02,  3.66900e-03, -4.25400e-04, -1.84900e-04],
                           [ 7.67500e-01,  5.29500e-01,  4.35800e-02, -6.31900e-02, -8.64000e-03,  8.09400e-03,  9.07600e-04, -6.67300e-04],
                           [-3.49000e-01,  1.18000e-01,  1.07200e-01, -3.45300e-02, -1.40500e-02,  3.43600e-03,  2.10000e-03, -3.06500e-04],
                           [-2.00900e-01,  6.22400e-02,  4.57300e-02, -3.20900e-03, -8.29400e-03, -1.54400e-03,  1.41600e-03,  3.42800e-04],
                           [-1.95600e-02,  1.49300e-02,  1.31400e-02,  1.15100e-02, -5.03300e-03, -2.49000e-03,  5.04100e-04,  4.60300e-04],
                           [ 1.00500e-02, -2.46700e-02,  7.23900e-03,  1.14200e-02, -2.22600e-03, -2.02300e-03,  2.70900e-05,  3.18400e-04],
                           [-6.93100e-03, -1.34700e-02,  2.04200e-03,  4.06900e-03,  1.31500e-03, -1.14900e-03, -3.84000e-04,  1.46700e-04],
                           [-1.16900e-02,  6.97600e-03, -2.16200e-03, -7.31700e-04,  2.22500e-03, -1.34300e-04, -4.60600e-04, -3.51900e-05],
                           [-4.75100e-03,  5.77700e-03, -1.63600e-03, -6.57200e-04,  7.67500e-04,  3.41700e-04, -1.79900e-04, -1.04600e-04]])

# Reaction 4
chebyshev_reaction('aadduct (+ M) <=> aQOOHb (+ M)',
                   Tmin=180.0, Tmax=1500.0,
                   Pmin=(0.01, 'atm'), Pmax=(98.692, 'atm'),
                   coeffs=[[-6.63100e+00,  1.63000e-01, -2.75400e-01, -1.45000e-02,  6.35800e-03,  8.14500e-04, -3.91200e-04, -1.37600e-05],
                           [ 8.08900e+00,  2.56300e+00, -2.44200e-01, -5.26400e-02,  1.50500e-02,  1.64500e-03, -3.98000e-04, -5.77100e-07],
                           [ 4.07800e-01,  5.54500e-01, -2.18900e-02, -2.43900e-02, -4.91300e-03,  5.52500e-03,  1.26100e-03, -6.14900e-04],
                           [-1.53300e-02,  4.54500e-03,  7.10700e-02, -2.36400e-02, -1.62000e-02,  5.49600e-03,  1.95000e-03, -5.06600e-04],
                           [-5.01400e-02,  2.90900e-02,  8.94500e-02, -2.22200e-02, -1.09600e-02,  1.06900e-03,  9.09000e-04,  2.76600e-04],
                           [-6.89600e-02,  2.87100e-02,  3.67000e-02, -1.71200e-03, -1.79100e-03, -3.28000e-03,  3.02600e-04,  6.75400e-04],
                           [-3.79100e-02, -1.26300e-03, -6.73900e-03,  1.39100e-02,  4.89500e-04, -3.88500e-03,  3.96300e-04,  3.89100e-04],
                           [ 5.74300e-04, -9.36100e-03, -9.70100e-03,  1.26000e-02, -1.06800e-03, -1.30700e-03,  9.91800e-05, -8.16100e-05],
                           [ 1.09200e-02, -3.75100e-03,  4.69800e-04,  2.53900e-03, -6.87500e-04,  9.76200e-04, -5.21400e-04, -1.79100e-04],
                           [ 6.60900e-03,  2.85300e-04,  3.51100e-03, -3.35800e-03,  1.13500e-03,  9.10500e-04, -6.21900e-04,  2.98900e-05]])

# Reaction 5
chebyshev_reaction('O2 + aR (+ M) <=> aQOOHb (+ M)',
                   Tmin=180.0, Tmax=1500.0,
                   Pmin=(0.01, 'atm'), Pmax=(98.692, 'atm'),
                   coeffs=[[ 7.16700e+00,  3.85400e-01, -5.88000e-01, -3.95100e-02,  4.06300e-02,  4.27800e-03, -5.01400e-03, -3.84800e-04],
                           [ 7.48200e-01,  6.68600e-01,  1.43100e-01, -6.56000e-02, -3.49900e-02,  6.64600e-03,  6.58400e-03, -5.90900e-04],
                           [ 3.54800e-01,  3.65000e-01,  9.53700e-02, -2.25100e-02, -1.91200e-02, -8.32800e-04,  2.32400e-03,  6.50000e-04],
                           [ 9.90100e-02,  1.77800e-01,  6.57300e-02, -2.21600e-03, -1.23400e-02, -2.88300e-03,  1.53100e-03,  7.40200e-04],
                           [ 2.22600e-02,  2.24200e-02,  3.39300e-02,  1.33400e-02, -4.43900e-03, -4.32000e-03,  1.30600e-04,  8.28900e-04],
                           [-2.46200e-02, -2.62100e-02,  6.52400e-03,  1.24100e-02,  2.59400e-03, -2.56700e-03, -1.31900e-03,  2.89200e-04],
                           [-2.75800e-02, -1.92900e-02, -3.59800e-03,  5.60300e-03,  3.79800e-03, -4.43300e-04, -1.20400e-03, -1.58600e-04],
                           [-8.84500e-03, -1.47600e-04, -2.10900e-03,  1.73800e-05,  1.55700e-03,  6.94200e-04, -2.96600e-04, -2.88700e-04],
                           [ 9.29600e-04,  8.60700e-03,  9.96600e-05, -1.88300e-03, -1.56200e-05,  7.52400e-04,  1.88500e-04, -1.82200e-04],
                           [ 4.02900e-03,  4.76800e-03,  3.57400e-04, -1.09800e-03, -2.91100e-04,  3.28600e-04,  1.95000e-04, -4.19300e-05]])
#  aQOOHb(+M) <=> aQOOH[O](+M)                         1.000e+00 0.000     0.000
#      TCHEB/ 180.000   1500.000 /
#      PCHEB/ 0.010     98.692   /
#      CHEB/ 10 8/
#      CHEB/ -7.053e+00   1.252e+00    -4.916e-01   -3.045e-03   5.606e-03   /
#      CHEB/ -9.254e-04   2.666e-04    2.227e-04    9.029e+00    1.716e+00   /
#      CHEB/ -3.299e-02   -6.485e-02   1.439e-02    4.669e-03    -1.553e-03  /
#      CHEB/ -4.082e-04   5.606e-01    3.000e-01    8.197e-02    -5.398e-02  /
#      CHEB/ -1.337e-02   9.492e-03    2.948e-03    -8.633e-04   -2.652e-02  /
#      CHEB/ 1.747e-01    7.893e-02    -2.262e-02   -1.809e-02   1.962e-04   /
#      CHEB/ 2.655e-03    4.806e-04    -4.468e-02   6.311e-02    4.152e-02   /
#      CHEB/ 8.277e-03    -8.965e-03   -3.397e-03   7.359e-04    5.356e-04   /
#      CHEB/ -2.988e-02   -2.840e-02   1.692e-02    1.535e-02    -2.756e-03  /
#      CHEB/ -3.293e-03   1.468e-04    4.441e-04    -2.674e-02   -3.030e-02  /
#      CHEB/ 3.652e-03    9.656e-03    1.283e-03    -2.273e-03   -4.954e-04  /
#      CHEB/ 3.862e-04    -9.684e-03   1.089e-03    -2.890e-03   2.301e-03   /
#      CHEB/ 2.798e-03    -6.572e-04   -7.570e-04   5.363e-05    1.145e-03   /
#      CHEB/ 7.785e-03    -3.719e-03   -1.210e-03   1.615e-03    6.891e-04   /
#      CHEB/ -4.713e-04   -1.806e-04   5.821e-03    4.646e-03    -6.647e-05  /
#      CHEB/ -1.081e-03   1.759e-04    5.211e-04    2.504e-05    -1.680e-04  /

# Reaction 6
chebyshev_reaction('aQOOHg (+ M) <=> aQOOH[O] (+ M)',
                   Tmin=180.0, Tmax=1500.0,
                   Pmin=(0.01, 'atm'), Pmax=(98.692, 'atm'),
                   coeffs=[[ 2.09900e+00,  1.19100e+00, -2.64400e-01,  8.94200e-03,  1.29500e-02, -1.92500e-03,  1.29300e-04,  1.92600e-04],
                           [ 2.56700e+00,  1.40100e+00, -2.44900e-01, -1.32500e-02,  1.03500e-02,  3.25000e-03, -8.02400e-04, -1.13200e-04],
                           [ 3.75800e-01,  4.96500e-01,  3.09700e-02, -6.27100e-02, -4.95100e-03,  7.69000e-03,  2.47200e-04, -4.07800e-04],
                           [-9.96000e-02,  2.03000e-01,  7.65900e-02, -4.61200e-02, -1.09400e-02,  8.18100e-04,  1.90100e-03,  2.31700e-04],
                           [-1.22900e-01,  7.68100e-02,  4.14200e-02, -2.55500e-03, -1.00100e-02, -2.23000e-03,  5.52500e-04,  2.20600e-04],
                           [-6.59600e-02,  1.12000e-03,  2.74600e-02,  1.23500e-02, -5.61200e-03, -6.84100e-04, -4.10900e-04, -1.17500e-04],
                           [-3.83400e-02, -1.23900e-02,  1.78400e-02,  8.85900e-03, -7.94000e-04, -9.23500e-04,  7.22900e-05, -1.23900e-05],
                           [-1.77600e-02, -3.99500e-04,  1.45400e-03,  4.59500e-03,  1.41500e-03, -1.18300e-03,  1.54100e-04,  7.05000e-05],
                           [-1.73100e-03,  5.29600e-03, -5.13900e-03,  4.66200e-04,  1.48700e-03, -2.56300e-04, -1.68100e-04, -1.02800e-05],
                           [ 1.74700e-03,  1.24500e-03, -1.43100e-03, -8.70100e-04,  1.73900e-04,  5.30400e-04, -2.28600e-04, -1.15300e-05]])

# Reaction 7
chebyshev_reaction('aRO2 (+ M) <=> aQOOH[O] (+ M)',
                   Tmin=180.0, Tmax=1500.0,
                   Pmin=(0.01, 'atm'), Pmax=(98.692, 'atm'),
                   coeffs=[[-2.96200e+00,  2.06500e+00, -3.32600e-01,  1.32300e-02, -1.59000e-03,  3.61700e-04,  1.14900e-03, -4.19100e-04],
                           [ 9.36500e+00,  1.21500e+00,  7.71200e-02, -4.70700e-02,  3.88700e-03, -1.96900e-04, -7.84000e-04,  5.61100e-04],
                           [-6.44800e-01,  2.87700e-01,  3.03900e-02, -1.43000e-02,  3.84100e-03,  3.29600e-03, -6.84000e-04, -3.56000e-04],
                           [-2.31200e-01,  1.07100e-01,  1.33200e-04, -1.55600e-02, -2.50100e-03,  3.08800e-03,  1.01200e-03, -2.61700e-04],
                           [-7.57200e-02,  3.85800e-02,  1.72500e-02, -9.13600e-03, -6.64100e-03,  4.12400e-04,  1.17900e-03,  1.30400e-04],
                           [-1.66200e-02, -6.87200e-03,  2.43200e-02,  4.89000e-04, -5.55300e-03, -1.18700e-03,  6.39900e-04,  2.40600e-04],
                           [ 6.05300e-04, -1.93300e-02,  1.41500e-02,  5.94600e-03, -2.63200e-03, -1.42600e-03,  9.96400e-05,  2.13900e-04],
                           [-3.51300e-03, -6.85800e-03,  2.61400e-03,  4.59700e-03,  4.46400e-04, -1.25400e-03, -1.90900e-04,  1.83900e-04],
                           [-3.94500e-03,  1.38600e-03, -4.57800e-03,  3.40500e-03,  9.21500e-04, -3.80100e-04, -3.47600e-04,  3.14700e-05],
                           [-6.32100e-03,  5.26700e-03, -2.52800e-03, -2.92800e-04,  1.53100e-03, -2.54800e-04, -1.46900e-04, -3.41500e-05]])

# Reaction 8
chebyshev_reaction('aadduct (+ M) <=> aQOOH[O] (+ M)',
                   Tmin=180.0, Tmax=1500.0,
                   Pmin=(0.01, 'atm'), Pmax=(98.692, 'atm'),
                   coeffs=[[-3.11000e+00,  1.15800e+00, -4.06500e-01,  1.76900e-02, -8.90900e-03,  1.64600e-03,  1.65100e-03, -8.03000e-04],
                           [ 6.25100e+00,  1.92300e+00,  1.77900e-01, -6.20900e-02,  5.32000e-03, -5.77700e-04, -1.40100e-03,  7.43400e-04],
                           [-8.53500e-01,  5.17400e-01,  2.92900e-02, -8.00000e-03,  7.82900e-03,  1.86400e-03, -5.77300e-04, -7.79900e-05],
                           [-1.43400e-01,  1.39800e-01, -2.24900e-02, -7.12200e-03, -9.37300e-04,  2.17000e-03,  8.64400e-04, -1.16900e-04],
                           [ 9.49600e-03,  1.84000e-02,  1.43600e-03, -5.68600e-03, -5.10300e-03,  2.94500e-04,  9.94900e-04,  8.16900e-06],
                           [-1.32400e-03, -2.94800e-02,  2.15600e-02, -2.38700e-03, -4.47100e-03, -6.08200e-04,  6.17900e-04,  1.08800e-04],
                           [-5.89500e-03, -3.44300e-02,  2.00400e-02,  1.56000e-03, -3.16100e-03, -5.68600e-04,  1.39400e-04,  1.44300e-04],
                           [ 8.03600e-03, -1.57400e-02,  1.08100e-02,  1.68100e-03, -5.59700e-04, -8.93200e-04, -1.39300e-04,  2.39700e-04],
                           [ 1.41800e-02, -3.86000e-03, -6.35600e-04,  4.46200e-03, -7.82900e-04, -1.91400e-04, -2.45400e-04, -1.27400e-05],
                           [ 3.09700e-03,  5.49600e-03, -1.50200e-03,  3.83100e-04,  1.76300e-03, -9.04600e-04,  1.21700e-05,  1.13500e-05]])

# Reaction 9
chebyshev_reaction('O2 + aR (+ M) <=> aQOOH[O] (+ M)',
                   Tmin=180.0, Tmax=1500.0,
                   Pmin=(0.01, 'atm'), Pmax=(98.692, 'atm'),
                   coeffs=[[ 8.71400e+00,  1.27800e+00, -3.11100e-01, -5.06000e-02,  1.45400e-02,  4.81400e-03, -2.95200e-03, -1.32900e-03],
                           [-3.29500e-01,  3.28900e-01,  1.09400e-01, -6.36700e-03, -1.50500e-02,  7.97100e-04,  3.99500e-03,  6.84400e-04],
                           [ 1.39800e-01,  1.36500e-01,  5.47400e-02,  1.30100e-03, -1.01100e-02, -3.70100e-03,  1.02900e-03,  1.12200e-03],
                           [ 8.09900e-02,  1.06400e-01,  3.68500e-02, -1.68100e-03, -6.38800e-03, -1.59200e-03,  4.51900e-04,  2.69100e-04],
                           [ 1.15600e-02,  3.44200e-02,  1.79100e-02,  4.30900e-03, -1.33400e-03, -1.52600e-03, -4.01300e-04,  1.33100e-04],
                           [-2.63800e-02, -1.63400e-02,  3.04700e-03,  7.64100e-03,  2.33200e-03, -1.25400e-03, -9.96100e-04,  3.64000e-06],
                           [-2.37600e-02, -2.13100e-02, -2.40400e-03,  4.90900e-03,  2.50100e-03, -3.74400e-04, -7.10100e-04, -1.29100e-04],
                           [-5.64800e-03, -2.00300e-03, -9.43000e-04,  5.51500e-04,  1.05200e-03,  4.89000e-04, -1.00100e-04, -1.96400e-04],
                           [ 2.98900e-03,  6.32400e-03, -3.44600e-04, -1.78200e-03, -1.55500e-04,  6.02000e-04,  2.13300e-04, -1.27200e-04],
                           [ 2.86200e-03,  5.26300e-03,  4.61800e-04, -1.01200e-03, -1.98900e-04,  3.44100e-04,  1.81900e-04, -3.96900e-05]])
#  aQOOHb(+M) <=> aQOOHg(+M)                           1.000e+00 0.000     0.000
#      TCHEB/ 180.000   1500.000 /
#      PCHEB/ 0.010     98.692   /
#      CHEB/ 10 8/
#      CHEB/ -8.412e+00   2.557e-02    -5.568e-01   3.247e-02    1.575e-02   /
#      CHEB/ -3.033e-03   -3.489e-04   2.811e-04    1.006e+01    2.062e+00   /
#      CHEB/ -2.687e-01   -9.943e-02   1.554e-02    8.139e-03    -1.239e-03  /
#      CHEB/ -4.998e-04   6.583e-01    6.394e-01    1.368e-01    -8.689e-02  /
#      CHEB/ -1.572e-02   7.692e-03    2.252e-03    -5.414e-04   -1.188e-01  /
#      CHEB/ 2.833e-01    1.080e-01    -2.977e-02   -1.634e-02   1.699e-03   /
#      CHEB/ 1.648e-03    2.060e-04    -6.521e-02   8.917e-02    6.277e-02   /
#      CHEB/ 4.632e-03    -1.308e-02   -1.040e-03   1.170e-03    7.272e-05   /
#      CHEB/ -6.082e-02   -1.759e-02   3.116e-02    1.632e-02    -5.716e-03  /
#      CHEB/ -3.231e-03   6.148e-04    2.865e-04    -4.830e-02   -2.016e-02  /
#      CHEB/ 6.389e-03    1.145e-02    1.148e-03    -2.683e-03   -3.527e-04  /
#      CHEB/ 3.240e-04    -1.773e-02   1.206e-03    -2.312e-03   3.339e-03   /
#      CHEB/ 2.558e-03    -5.777e-04   -5.833e-04   1.644e-05    -1.650e-04  /
#      CHEB/ 7.705e-03    -1.651e-03   -6.991e-04   1.335e-03    5.078e-04   /
#      CHEB/ -2.511e-04   -1.352e-04   3.278e-03    2.075e-03    -2.208e-04  /
#      CHEB/ -5.930e-04   2.326e-04    3.678e-04    4.448e-05    -6.286e-05  /
#  aQOOH[O](+M) <=> aQOOHg(+M)                         1.000e+00 0.000     0.000
#      TCHEB/ 180.000   1500.000 /
#      PCHEB/ 0.010     98.692   /
#      CHEB/ 10 8/
#      CHEB/ 2.535e+00    1.191e+00    -2.644e-01   8.942e-03    1.295e-02   /
#      CHEB/ -1.925e-03   1.293e-04    1.926e-04    2.375e+00    1.401e+00   /
#      CHEB/ -2.449e-01   -1.325e-02   1.035e-02    3.250e-03    -8.024e-04  /
#      CHEB/ -1.132e-04   5.210e-01    4.965e-01    3.097e-02    -6.271e-02  /
#      CHEB/ -4.951e-03   7.690e-03    2.472e-04    -4.078e-04   -5.147e-02  /
#      CHEB/ 2.030e-01    7.659e-02    -4.612e-02   -1.094e-02   8.181e-04   /
#      CHEB/ 1.901e-03    2.317e-04    -1.101e-01   7.681e-02    4.142e-02   /
#      CHEB/ -2.555e-03   -1.001e-02   -2.230e-03   5.525e-04    2.206e-04   /