units(length='cm', time='s', quantity='mol', act_energy='kcal/mol')

ideal_gas(name='gas',
          elements="H D T C Ci O Oi N Ne Ar He Si S F Cl Br I X",
          species="""aOOHbalkene      OH               ibutanal
                     aR               performic_acid   disub_c4ether
                     aQOOHb           H                aadduct
                     trisub_epoxy     ibutenol         aQOOH[O]
                     ipropyl          aRO2             O2
                     formic_acid      propene          aQOOHg
                     ibut_peroxyacid  HO2              CH3""",
          reactions='all',
          initial_state=state(temperature=300.0, pressure=OneAtm))

#-------------------------------------------------------------------------------
# Element data
#-------------------------------------------------------------------------------

element(symbol='Ci', atomic_mass=13.003)
element(symbol='D', atomic_mass=2.014)
element(symbol='Oi', atomic_mass=18.0)
element(symbol='T', atomic_mass=3.016)
element(symbol='X', atomic_mass=195.083)
#-------------------------------------------------------------------------------
# Species data
#-------------------------------------------------------------------------------

species(name='aOOHbalkene',
        atoms='C:3 H:6 O:3',
        thermo=(NASA([10.00, 497.41],
                     [ 3.76691735E+00,  1.51417956E-02,  1.85499431E-04,
                      -4.61303214E-07,  3.27678941E-10, -3.29960362E+04,
                       1.09903968E+01]),
                NASA([497.41, 3000.00],
                     [ 6.20882781E+00,  4.08866173E-02, -2.89934946E-05,
                       9.60428979E-09, -1.19355432E-12, -3.38003655E+04,
                      -4.72842811E+00])))

species(name='OH',
        atoms='H:1 O:1',
        thermo=(NASA([10.00, 984.14],
                     [ 3.49686242E+00,  1.83973160E-04, -9.97634499E-07,
                       1.56942783E-09, -6.10128175E-13,  3.41673934E+03,
                       1.48093120E+00]),
                NASA([984.14, 3000.00],
                     [ 3.45221464E+00, -2.95124034E-04,  7.39418622E-07,
                      -2.89309866E-10,  3.53041498E-14,  3.45751599E+03,
                       1.85813897E+00])))

species(name='ibutanal',
        atoms='C:4 H:8 O:1',
        thermo=(NASA([10.00, 683.88],
                     [ 3.57157346E+00,  3.36936906E-02, -1.78475021E-05,
                       1.31946716E-08, -7.58008388E-12, -2.69114078E+04,
                       1.05595084E+01]),
                NASA([683.88, 3000.00],
                     [ 1.29043622E+00,  4.14804229E-02, -2.27411206E-05,
                       6.08619500E-09, -6.38995128E-13, -2.64694886E+04,
                       2.16477430E+01])))

species(name='aR',
        atoms='C:4 H:9 O:1',
        thermo=(NASA([10.00, 455.22],
                     [ 3.59625500E+00,  3.38947981E-02,  7.37257079E-06,
                      -3.99275335E-08,  2.49019944E-11, -1.32731057E+04,
                       1.18269265E+01]),
                NASA([455.22, 3000.00],
                     [ 2.49586309E+00,  4.35639890E-02, -2.44887770E-05,
                       6.73363769E-09, -7.23862433E-13, -1.31729226E+04,
                       1.62696907E+01])))

species(name='performic_acid',
        atoms='C:1 H:2 O:3',
        thermo=(NASA([10.00, 590.95],
                     [ 3.92633851E+00,  4.24517168E-03,  6.71106764E-05,
                      -1.36545385E-07,  8.03337864E-11, -3.63028176E+04,
                       8.06485813E+00]),
                NASA([590.95, 3000.00],
                     [ 4.39992934E+00,  1.85411415E-02, -1.36005501E-05,
                       4.62292431E-09, -5.88463603E-13, -3.66643888E+04,
                       3.44353230E+00])))

species(name='disub_c4ether',
        atoms='C:4 H:8 O:2',
        thermo=(NASA([10.00, 413.50],
                     [ 3.78241323E+00,  1.89501763E-02,  8.65302396E-05,
                      -1.80580575E-07,  1.13656264E-10, -3.93768999E+04,
                       1.09982450E+01]),
                NASA([413.50, 3000.00],
                     [ 4.29420885E-01,  5.13851903E-02, -3.11292293E-05,
                       9.11498284E-09, -1.03192718E-12, -3.90996056E+04,
                       2.42134976E+01])))

species(name='aQOOHb',
        atoms='C:4 H:9 O:3',
        thermo=(NASA([10.00, 412.78],
                     [ 3.15498836E+00,  8.55068303E-02, -2.35307993E-04,
                       4.71983261E-07, -3.62709267E-10, -3.02515192E+04,
                       1.52522123E+01]),
                NASA([412.78, 3000.00],
                     [ 4.18099845E+00,  5.26168288E-02, -3.23998410E-05,
                       9.59389339E-09, -1.09464519E-12, -3.01407243E+04,
                       1.35782328E+01])))

species(name='H',
        atoms='H:1',
        thermo=(NASA([10.00, 794.01],
                     [ 2.50000000E+00,  1.99051163E-15, -1.19089508E-17,
                       2.10805655E-20, -1.11017699E-23,  2.54725594E+04,
                      -4.61279342E-01]),
                NASA([794.01, 3000.00],
                     [ 2.50000000E+00,  1.52667235E-14, -1.58445285E-17,
                       6.63088600E-21, -9.62111674E-25,  2.54725594E+04,
                      -4.61279342E-01])))

species(name='aadduct',
        atoms='C:4 H:9 O:3',
        thermo=(NASA([10.00, 449.84],
                     [ 3.06901904E+00,  9.20724491E-02, -2.68085092E-04,
                       5.15249897E-07, -3.68046586E-10, -3.27667167E+04,
                       1.46591735E+01]),
                NASA([449.84, 3000.00],
                     [ 4.11210745E+00,  5.16955724E-02, -2.97401041E-05,
                       8.32758939E-09, -9.08861448E-13, -3.25458757E+04,
                       1.39578825E+01])))

species(name='trisub_epoxy',
        atoms='C:4 H:8 O:2',
        thermo=(NASA([10.00, 209.19],
                     [ 3.75295042E+00,  2.37546930E-02,  1.26610110E-04,
                      -4.78364365E-07,  5.79468168E-10, -4.10069505E+04,
                       1.12739684E+01]),
                NASA([209.19, 3000.00],
                     [ 2.64185254E+00,  4.50006531E-02, -2.57361066E-05,
                       7.15266054E-09, -7.72980731E-13, -4.09604650E+04,
                       1.48960343E+01])))

species(name='ibutenol',
        atoms='C:4 H:8 O:1',
        thermo=(NASA([10.00, 135.97],
                     [ 3.95714996E+00,  5.72646980E-03,  4.63611760E-04,
                      -3.04137514E-06,  6.85019471E-09, -2.33391669E+04,
                       8.21931848E+00]),
                NASA([135.97, 3000.00],
                     [ 3.32467612E+00,  3.69033556E-02, -1.89960416E-05,
                       4.73417677E-09, -4.59705291E-13, -2.33335882E+04,
                       9.58133237E+00])))

species(name='aQOOH[O]',
        atoms='C:4 H:9 O:3',
        thermo=(NASA([10.00, 488.36],
                     [ 3.54559533E+00,  3.89536133E-02,  8.47689703E-05,
                      -2.45147486E-07,  1.76157259E-10, -2.33008546E+04,
                       1.34685910E+01]),
                NASA([488.36, 3000.00],
                     [ 3.94214913E+00,  5.71928314E-02, -3.72516212E-05,
                       1.15209013E-08, -1.35808341E-12, -2.35958156E+04,
                       9.21628964E+00])))

species(name='ipropyl',
        atoms='C:3 H:7',
        thermo=(NASA([10.00, 421.76],
                     [ 3.73943775E+00,  3.10070157E-02, -1.51196908E-04,
                       4.35367329E-07, -3.85565052E-10,  9.49213457E+03,
                       7.79448918E+00]),
                NASA([421.76, 3000.00],
                     [-4.74526725E-01,  3.20862468E-02, -1.67340747E-05,
                       4.21365136E-09, -4.13155573E-13,  1.01934458E+04,
                       2.85865912E+01])))

species(name='aRO2',
        atoms='C:4 H:9 O:3',
        thermo=(NASA([10.00, 670.36],
                     [ 3.45405325E+00,  4.74751311E-02,  9.77507759E-06,
                      -6.31019603E-08,  3.75500067E-11, -3.21960067E+04,
                       1.39284976E+01]),
                NASA([670.36, 3000.00],
                     [ 5.04137652E+00,  5.19952978E-02, -3.16472789E-05,
                       9.22798587E-09, -1.03598915E-12, -3.27231993E+04,
                       4.56056770E+00])))

species(name='O2',
        atoms='O:2',
        thermo=(NASA([10.00, 605.96],
                     [ 3.50743498E+00, -4.43860349E-04,  1.45938058E-06,
                       1.61509333E-09, -2.32050052E-12, -9.24756224E+02,
                       4.72183634E+00]),
                NASA([605.96, 3000.00],
                     [ 2.87462882E+00,  2.17840991E-03, -1.18262921E-06,
                       2.86910493E-10, -2.53297146E-14, -8.19517838E+02,
                       7.69331810E+00])))

species(name='formic_acid',
        atoms='C:1 H:2 O:2',
        thermo=(NASA([10.00, 741.38],
                     [ 4.06855785E+00, -4.74562133E-03,  4.71797900E-05,
                      -6.07490052E-08,  2.51286794E-11, -4.66880837E+04,
                       6.53681035E+00]),
                NASA([741.38, 3000.00],
                     [ 1.13645847E+00,  1.74953124E-02, -1.08112403E-05,
                       3.08075326E-09, -3.34892658E-13, -4.64297918E+04,
                       1.86149484E+01])))

species(name='propene',
        atoms='C:3 H:6',
        thermo=(NASA([10.00, 519.53],
                     [ 3.98723879E+00,  4.72040503E-04,  6.51776229E-05,
                      -9.89891002E-08,  4.91141123E-11,  3.80837961E+03,
                       6.98071210E+00]),
                NASA([519.53, 3000.00],
                     [ 3.79893331E-01,  2.82457690E-02, -1.50108430E-05,
                       3.90894069E-09, -4.00521928E-13,  4.18320696E+03,
                       2.20218922E+01])))

species(name='aQOOHg',
        atoms='C:4 H:9 O:3',
        thermo=(NASA([10.00, 455.48],
                     [ 3.62522127E+00,  2.83222320E-02,  2.08527447E-04,
                      -5.67427418E-07,  4.35169138E-10, -2.49855835E+04,
                       1.26617758E+01]),
                NASA([455.48, 3000.00],
                     [ 5.13914202E+00,  5.96270859E-02, -4.14435328E-05,
                       1.34202375E-08, -1.63474553E-12, -2.55861398E+04,
                       1.46991116E+00])))

species(name='ibut_peroxyacid',
        atoms='C:4 H:8 O:3',
        thermo=(NASA([10.00, 1386.21],
                     [ 3.50995385E+00,  4.78670384E-02, -2.40781384E-05,
                       3.71046938E-09,  3.85442115E-13, -4.82957547E+04,
                       1.22017268E+01]),
                NASA([1386.21, 3000.00],
                     [ 1.24543146E+01,  3.02396862E-02, -1.38577031E-05,
                       3.05328904E-09, -2.63982457E-13, -5.15616380E+04,
                      -3.67061828E+01])))

species(name='HO2',
        atoms='H:1 O:2',
        thermo=(NASA([10.00, 891.11],
                     [ 4.02887004E+00, -1.75769289E-03,  1.08726004E-05,
                      -1.13812972E-08,  3.90113097E-12,  4.95165001E+02,
                       4.69302008E+00]),
                NASA([891.11, 3000.00],
                     [ 3.06571044E+00,  4.28505005E-03, -2.19325920E-06,
                       5.58882699E-10, -5.61246669E-14,  5.98557610E+02,
                       8.84564156E+00])))

species(name='CH3',
        atoms='C:1 H:3',
        thermo=(NASA([10.00, 616.77],
                     [ 3.98929952E+00,  5.45150461E-04,  9.01320092E-06,
                      -1.08320497E-08,  4.38985879E-12,  1.65859883E+04,
                       2.22446886E-01]),
                NASA([616.77, 3000.00],
                     [ 3.35928237E+00,  4.63117126E-03, -9.24365433E-07,
                      -9.02514624E-11,  3.56905106E-14,  1.66637014E+04,
                       2.95743732E+00])))

#-------------------------------------------------------------------------------
# Reaction data
#-------------------------------------------------------------------------------

# Reaction 1
chebyshev_reaction('aQOOH[O] (+ M) <=> aQOOHb (+ M)',
                   Tmin=180.0, Tmax=1500.0,
                   Pmin=(0.01, 'atm'), Pmax=(98.692, 'atm'),
                   coeffs=[[-3.52100e+00,  2.24600e+00, -1.96000e-02,  3.68600e-02,  1.94000e-03, -2.97500e-03, -4.21300e-04, -1.92400e-04],
                           [-4.64800e+00,  9.33700e-01,  6.95800e-03,  3.02400e-02,  1.20600e-02,  3.18500e-04, -1.67800e-03, -3.05300e-04],
                           [-2.19800e+00,  3.58700e-01, -1.64100e-02,  1.82300e-02,  4.54100e-03,  4.20600e-04, -4.49200e-04, -6.43700e-04],
                           [-1.27800e+00,  1.60700e-01,  5.22900e-03,  6.89800e-03,  8.39900e-03,  1.32500e-03,  2.15500e-04,  7.45500e-05],
                           [-9.33300e-01, -3.36700e-02,  2.15300e-02, -3.69800e-03,  2.65800e-03,  2.73000e-03,  9.97600e-04,  4.02900e-05],
                           [-5.67000e-01, -1.12500e-01, -4.34400e-03, -7.66400e-03,  6.01400e-04,  9.05500e-04,  6.72100e-04,  4.68000e-04],
                           [-2.96900e-01, -1.34100e-01, -7.04600e-03, -1.57000e-03, -2.79800e-03,  3.05000e-04,  3.61300e-04,  8.20800e-05],
                           [-8.85600e-02, -7.17300e-02, -2.36500e-02,  2.44000e-03, -4.16800e-05, -9.65100e-04, -2.75100e-06,  2.53900e-05],
                           [ 4.73200e-02, -3.27100e-02, -2.71000e-02,  4.02800e-04,  2.95900e-03,  1.61100e-05, -6.98000e-04, -1.02900e-04],
                           [ 8.44400e-03,  1.17900e-03, -1.53200e-02, -1.37600e-03,  1.89600e-03,  8.22400e-04,  4.81000e-05, -2.82400e-04]])

# Reaction 2
chebyshev_reaction('aQOOHg (+ M) <=> aQOOHb (+ M)',
                   Tmin=180.0, Tmax=1500.0,
                   Pmin=(0.01, 'atm'), Pmax=(98.692, 'atm'),
                   coeffs=[[-4.84800e+00,  2.41000e+00, -3.81400e-01, -8.62100e-02, -8.17700e-04,  1.05400e-02,  1.63600e-03, -1.50000e-03],
                           [-2.62600e+00,  1.87000e+00,  5.68800e-01, -2.08300e-02, -5.05100e-02, -6.89000e-03,  5.50800e-03,  2.04800e-03],
                           [-2.99600e+00, -3.89900e-01,  2.99700e-02,  1.53300e-01,  1.54800e-02, -1.49000e-02, -4.47300e-03,  1.07300e-03],
                           [-1.68900e+00, -3.34600e-01, -1.05800e-01,  3.46100e-02,  1.88600e-02,  2.48500e-03, -5.85800e-04, -7.72700e-04],
                           [-9.10000e-01, -1.41300e-02, -2.61900e-02, -2.08100e-03,  4.78300e-04, -9.01600e-04,  1.77600e-03,  7.84900e-04],
                           [-5.14600e-01, -3.31000e-02,  3.95100e-03,  8.40600e-03,  7.14300e-03, -2.54300e-03, -1.88700e-03,  4.31300e-04],
                           [-2.71700e-01, -1.11400e-01, -2.56100e-02,  3.05100e-03,  1.07500e-02,  2.00100e-03, -1.87300e-03, -6.27000e-04],
                           [-1.11700e-01, -9.09300e-02, -3.24800e-02, -5.95000e-03,  3.28300e-03,  2.66700e-03,  1.28000e-04, -2.69400e-04],
                           [-3.26400e-02, -2.17900e-02, -2.02800e-02, -4.36600e-03, -6.34900e-04,  8.65500e-04,  1.90700e-04, -1.42500e-04],
                           [ 3.82000e-02,  6.74200e-03, -1.45300e-02, -3.82800e-03,  1.35700e-03,  7.46000e-04, -4.20200e-04, -3.41700e-04]])

# Reaction 3
chebyshev_reaction('aRO2 (+ M) <=> aQOOHb (+ M)',
                   Tmin=180.0, Tmax=1500.0,
                   Pmin=(0.01, 'atm'), Pmax=(98.692, 'atm'),
                   coeffs=[[-7.49600e+00,  3.20400e+00, -4.41100e-01, -2.68600e-02,  4.96000e-02, -1.72500e-02, -3.64800e-03,  4.45000e-03],
                           [ 5.05700e+00,  8.67100e-01,  7.39500e-01, -4.15500e-02, -9.57600e-02,  2.19700e-02,  6.82800e-03, -4.44500e-03],
                           [-2.45400e+00,  8.25800e-02,  1.39200e-01,  1.15300e-01, -3.52800e-03, -1.37000e-02,  5.40500e-04,  5.02000e-04],
                           [-1.61600e+00, -3.50100e-01, -7.10800e-02,  7.82700e-02,  3.15300e-02, -5.76800e-03, -4.54800e-03,  1.38800e-04],
                           [-1.01200e+00, -2.67700e-01, -9.13200e-02,  1.72400e-02,  2.06200e-02,  1.13400e-03, -2.04200e-03,  1.35700e-04],
                           [-5.03800e-01, -1.19700e-01, -4.19700e-02, -9.24600e-03,  2.11500e-03,  2.25600e-03,  6.35300e-04,  1.91900e-04],
                           [-2.12300e-01, -4.50200e-02, -1.37200e-02, -1.07100e-02, -1.92500e-03,  1.47700e-03,  7.81600e-04, -1.99500e-04],
                           [-6.39300e-02, -2.16900e-02, -1.50700e-02, -3.52300e-03,  7.89700e-04,  1.64000e-03, -1.88400e-04, -5.21800e-04],
                           [-1.48600e-02, -1.37900e-02, -2.01900e-02, -1.51300e-03,  3.94000e-03,  1.01600e-03, -4.09400e-04, -3.42500e-04],
                           [ 2.97800e-02, -1.44900e-02, -1.69900e-02, -1.93100e-03,  1.62800e-03,  7.04300e-04,  1.62600e-04, -5.72900e-05]])

# Reaction 4
chebyshev_reaction('aadduct (+ M) <=> aQOOHb (+ M)',
                   Tmin=180.0, Tmax=1500.0,
                   Pmin=(0.01, 'atm'), Pmax=(98.692, 'atm'),
                   coeffs=[[-1.06700e+01,  1.46400e+00, -4.90400e-01,  5.02800e-03,  4.43700e-02, -1.84200e-02, -3.88000e-03,  5.30500e-03],
                           [ 5.26200e+00,  1.09300e+00,  6.41000e-01, -6.52200e-03, -9.30000e-02,  1.38200e-02,  8.93000e-03, -4.02400e-03],
                           [-2.48800e+00,  1.42400e-01,  1.18500e-01,  1.21100e-01, -1.95500e-03, -1.70500e-02,  1.55300e-03,  1.35400e-03],
                           [-1.61600e+00, -3.40900e-01, -7.10400e-02,  7.79900e-02,  3.03300e-02, -5.76700e-03, -4.00000e-03,  3.15500e-04],
                           [-1.02600e+00, -2.64900e-01, -8.77500e-02,  1.36000e-02,  1.95700e-02,  3.30900e-03, -1.58800e-03, -4.17100e-04],
                           [-5.32400e-01, -1.11700e-01, -4.49000e-02, -9.10800e-03,  3.83800e-03,  1.79400e-03,  1.19800e-04,  2.70400e-04],
                           [-2.35800e-01, -4.86200e-02, -1.30300e-02, -8.81200e-03, -2.16400e-03,  5.41200e-04,  6.77200e-04,  2.48400e-04],
                           [-8.54500e-02, -1.41000e-02, -1.79500e-02, -4.12800e-03,  2.09700e-03,  1.62400e-03, -3.60500e-04, -6.97400e-04],
                           [-2.01800e-02, -1.94200e-02, -1.62400e-02, -2.96300e-03,  2.38800e-03,  2.33500e-03, -2.01400e-05, -7.02100e-04],
                           [ 3.06300e-02, -1.67100e-02, -1.67300e-02, -6.12100e-04,  1.02300e-03,  1.09400e-05,  2.84300e-04,  2.29400e-04]])

# Reaction 5
chebyshev_reaction('O2 + aR (+ M) <=> aQOOHb (+ M)',
                   Tmin=180.0, Tmax=1500.0,
                   Pmin=(0.01, 'atm'), Pmax=(98.692, 'atm'),
                   coeffs=[[ 7.30100e+00,  1.32400e+00, -5.06800e-01,  4.24900e-02, -2.94600e-02,  1.48900e-03,  3.65900e-03, -1.19600e-04],
                           [-1.32000e+00,  1.53000e+00,  1.60500e-01, -1.05400e-01,  4.85300e-02, -6.44500e-03, -4.64600e-03,  3.11800e-04],
                           [-1.01300e+00,  5.44900e-01,  2.29600e-01, -7.24100e-02, -4.30900e-03,  1.28600e-02, -1.37100e-03, -6.44800e-04],
                           [-8.44900e-01,  6.35300e-02,  1.81900e-01, -9.77400e-03, -2.38800e-02,  5.50900e-03,  2.54500e-03, -5.01200e-04],
                           [-5.85200e-01, -1.13800e-01,  9.84100e-02,  2.54500e-02, -1.61000e-02, -2.61100e-03,  2.16000e-03,  2.04600e-04],
                           [-3.45600e-01, -1.55900e-01,  3.04100e-02,  3.03100e-02, -3.41300e-03, -4.13000e-03,  3.74500e-04,  3.50500e-04],
                           [-1.73300e-01, -1.41200e-01, -1.08900e-02,  2.05000e-02,  3.94200e-03, -2.08100e-03, -5.87100e-04,  6.06500e-05],
                           [-6.02100e-02, -9.35600e-02, -3.23500e-02,  9.28400e-03,  5.62100e-03, -1.57200e-04, -5.56300e-04, -1.98900e-04],
                           [ 2.20300e-05, -4.93600e-02, -3.25000e-02, -1.44400e-03,  4.54400e-03,  1.01100e-03, -3.47000e-04, -2.16700e-04],
                           [ 2.36800e-02, -1.12000e-03, -2.65900e-02, -6.04900e-03,  1.96600e-03,  9.45200e-04, -1.42800e-05, -1.37600e-04]])
#  aQOOHb(+M) <=> aQOOH[O](+M)                         1.000e+00 0.000     0.000
#      TCHEB/ 180.000   1500.000 /
#      PCHEB/ 0.010     98.692   /
#      CHEB/ 10 8/
#      CHEB/ -1.441e+01   2.246e+00    -1.960e-02   3.686e-02    1.940e-03   /
#      CHEB/ -2.975e-03   -4.213e-04   -1.924e-04   2.552e+00    9.337e-01   /
#      CHEB/ 6.958e-03    3.024e-02    1.206e-02    3.185e-04    -1.678e-03  /
#      CHEB/ -3.053e-04   -2.120e+00   3.587e-01    -1.641e-02   1.823e-02   /
#      CHEB/ 4.541e-03    4.206e-04    -4.492e-04   -6.437e-04   -1.232e+00  /
#      CHEB/ 1.607e-01    5.229e-03    6.898e-03    8.399e-03    1.325e-03   /
#      CHEB/ 2.155e-04    7.455e-05    -9.179e-01   -3.367e-02   2.153e-02   /
#      CHEB/ -3.698e-03   2.658e-03    2.730e-03    9.976e-04    4.029e-05   /
#      CHEB/ -5.622e-01   -1.125e-01   -4.344e-03   -7.664e-03   6.014e-04   /
#      CHEB/ 9.055e-04    6.721e-04    4.680e-04    -2.951e-01   -1.341e-01  /
#      CHEB/ -7.046e-03   -1.570e-03   -2.798e-03   3.050e-04    3.613e-04   /
#      CHEB/ 8.208e-05    -8.784e-02   -7.173e-02   -2.365e-02   2.440e-03   /
#      CHEB/ -4.168e-05   -9.651e-04   -2.751e-06   2.539e-05    4.751e-02   /
#      CHEB/ -3.271e-02   -2.710e-02   4.028e-04    2.959e-03    1.611e-05   /
#      CHEB/ -6.980e-04   -1.029e-04   8.451e-03    1.179e-03    -1.532e-02  /
#      CHEB/ -1.376e-03   1.896e-03    8.224e-04    4.810e-05    -2.824e-04  /

# Reaction 6
chebyshev_reaction('aQOOHg (+ M) <=> aQOOH[O] (+ M)',
                   Tmin=180.0, Tmax=1500.0,
                   Pmin=(0.01, 'atm'), Pmax=(98.692, 'atm'),
                   coeffs=[[-7.90200e+00,  3.46000e+00, -3.61700e-01,  5.29800e-02,  1.17400e-03, -3.16700e-03,  3.99800e-03, -1.90400e-03],
                           [-6.85500e+00,  4.49400e-01,  2.98400e-01, -1.13600e-01,  7.57300e-03,  1.51700e-02, -3.40700e-03,  1.19100e-04],
                           [-3.90000e+00, -2.51000e-01, -9.96200e-02,  8.42200e-03,  7.49000e-03,  3.73000e-04, -2.49700e-03,  2.67400e-04],
                           [-1.50000e+00, -1.35600e-01, -1.02500e-01, -1.00400e-03,  2.61300e-03, -2.26600e-03,  1.33200e-03,  8.34000e-04],
                           [-6.46300e-01, -4.72100e-02,  2.24700e-02, -1.36700e-03, -1.56500e-02, -2.84700e-03,  3.31600e-03,  6.24300e-04],
                           [-3.10000e-01,  1.66900e-02,  8.28300e-03,  1.91400e-03, -4.40400e-03, -2.15700e-03,  2.53300e-04, -1.16900e-04],
                           [-1.63500e-01, -2.94800e-02,  1.52400e-03, -8.59400e-03,  1.47800e-03,  3.76300e-03, -1.32900e-03, -1.16900e-03],
                           [-9.07500e-02,  2.92800e-02, -1.51600e-02, -5.93700e-03,  2.45500e-03,  2.66000e-04, -4.03500e-04,  1.51900e-04],
                           [-1.58000e-02,  4.45100e-02, -9.07400e-04,  2.30400e-03,  2.65800e-03, -2.03900e-03, -8.58000e-04,  7.20900e-04],
                           [-1.09400e-02,  3.36600e-03,  1.20800e-02,  8.42300e-03,  8.36500e-04, -2.24600e-04,  7.18500e-05, -2.11600e-04]])

# Reaction 7
chebyshev_reaction('aRO2 (+ M) <=> aQOOH[O] (+ M)',
                   Tmin=180.0, Tmax=1500.0,
                   Pmin=(0.01, 'atm'), Pmax=(98.692, 'atm'),
                   coeffs=[[-1.26700e+01,  5.80900e+00, -5.52000e-01, -1.76500e-01,  9.23600e-02,  1.05700e-02, -1.85800e-02, -5.45200e-04],
                           [ 4.42900e+00, -1.36600e+00,  5.39000e-01,  4.52900e-02, -1.13800e-01,  1.40700e-02,  2.46600e-02, -3.80100e-03],
                           [-3.73800e+00, -2.66500e-01,  5.03800e-02,  6.65800e-02, -1.49800e-02, -1.96100e-02,  1.41200e-03,  4.51400e-03],
                           [-1.76600e+00, -1.92900e-01, -3.54800e-02,  3.35300e-02,  1.36500e-02, -6.64300e-03, -3.18700e-03,  9.81000e-04],
                           [-8.41300e-01, -9.05800e-02, -5.05000e-02, -2.40700e-03,  9.32400e-03,  1.66200e-03, -1.73500e-03, -4.19600e-04],
                           [-2.91000e-01, -1.42500e-02, -3.52700e-02, -1.22500e-02,  2.58200e-04,  1.60700e-03,  1.37400e-04, -2.35400e-04],
                           [-1.15000e-01,  3.60000e-02, -1.52500e-03, -6.78900e-03, -2.36300e-03, -1.21100e-04,  1.65500e-04,  9.34100e-05],
                           [-4.01500e-02,  5.04400e-02,  1.23800e-02,  5.39500e-06, -1.35800e-03, -5.43500e-04, -1.38000e-04, -2.18400e-05],
                           [ 2.20000e-02,  1.02400e-02,  1.01000e-02,  3.94300e-03,  5.48600e-04, -2.72900e-04, -2.30200e-04, -6.03500e-05],
                           [-5.23800e-02,  1.31900e-02,  4.31100e-03,  2.04900e-03,  2.00600e-03,  5.08100e-04, -1.21800e-04, -1.87900e-04]])

# Reaction 8
chebyshev_reaction('aadduct (+ M) <=> aQOOH[O] (+ M)',
                   Tmin=180.0, Tmax=1500.0,
                   Pmin=(0.01, 'atm'), Pmax=(98.692, 'atm'),
                   coeffs=[[-1.58500e+01,  4.06700e+00, -6.00200e-01, -1.45400e-01,  8.76300e-02,  9.15300e-03, -1.87200e-02,  2.95400e-04],
                           [ 4.63200e+00, -1.13800e+00,  4.38800e-01,  8.15400e-02, -1.11800e-01,  6.30100e-03,  2.66100e-02, -3.35300e-03],
                           [-3.77200e+00, -2.07200e-01,  3.00900e-02,  7.20900e-02, -1.32000e-02, -2.30900e-02,  2.48500e-03,  5.34400e-03],
                           [-1.76500e+00, -1.84600e-01, -3.47300e-02,  3.27800e-02,  1.27100e-02, -6.74600e-03, -2.62000e-03,  1.17000e-03],
                           [-8.56200e-01, -8.66300e-02, -4.78900e-02, -5.38100e-03,  7.88600e-03,  4.01400e-03, -1.33400e-03, -9.73800e-04],
                           [-3.19300e-01, -6.78000e-03, -3.77600e-02, -1.24300e-02,  2.17700e-03,  1.04300e-03, -3.38500e-04, -1.64500e-04],
                           [-1.38300e-01,  3.20900e-02, -6.06900e-04, -5.03600e-03, -2.53200e-03, -1.07500e-03,  5.54700e-05,  5.52100e-04],
                           [-6.20000e-02,  5.86500e-02,  9.00400e-03, -2.61600e-04, -2.39100e-04, -4.81400e-04, -3.27100e-04, -2.04700e-04],
                           [ 1.68700e-02,  4.25300e-03,  1.43300e-02,  2.29100e-03, -8.84300e-04,  9.90700e-04,  1.76000e-04, -4.19100e-04],
                           [-5.14700e-02,  1.08700e-02,  4.64000e-03,  3.32300e-03,  1.42000e-03, -1.88000e-04, -4.04100e-06,  1.03000e-04]])

# Reaction 9
chebyshev_reaction('O2 + aR (+ M) <=> aQOOH[O] (+ M)',
                   Tmin=180.0, Tmax=1500.0,
                   Pmin=(0.01, 'atm'), Pmax=(98.692, 'atm'),
                   coeffs=[[-2.23600e+00,  4.04200e+00,  6.84200e-01, -1.31100e-01, -1.83300e-01,  4.73200e-03,  5.70600e-02,  5.85400e-03],
                           [-1.88700e+00, -1.90700e+00, -4.33500e-01,  3.31600e-01,  2.23900e-01, -5.54500e-02, -8.79300e-02,  4.21300e-03],
                           [-1.52100e+00,  9.05600e-02, -7.57600e-02, -8.09100e-02,  2.30600e-02,  6.22300e-02,  1.34800e-02, -2.45800e-02],
                           [-7.13000e-01,  8.91200e-03, -1.23900e-02, -3.01100e-02, -2.17300e-02,  5.93100e-03,  1.98400e-02,  7.93300e-03],
                           [-3.93900e-01, -7.95700e-03, -1.76000e-02, -1.71500e-02, -1.16000e-02, -6.01700e-03,  7.80600e-04,  5.86400e-03],
                           [-1.36200e-01, -2.75900e-02, -1.37800e-02, -6.54500e-03, -6.76300e-03, -6.30800e-03, -2.42400e-03,  1.31300e-03],
                           [-9.88500e-02,  6.57200e-03, -2.40100e-04, -3.74000e-03, -2.69000e-03, -1.31700e-03, -1.43400e-03, -1.21700e-03],
                           [-2.45600e-02,  6.38200e-03,  5.94100e-03,  2.85300e-03,  1.74400e-04, -6.47900e-04, -6.60100e-04, -6.17900e-04],
                           [ 3.02700e-02, -4.38600e-03, -4.03300e-05,  3.06200e-03,  2.64900e-03,  6.27400e-04, -4.46500e-04, -3.99500e-04],
                           [-2.87300e-02,  8.33100e-03,  5.51300e-03,  2.83500e-03,  1.02900e-03,  3.82700e-04,  2.72200e-04,  2.74300e-05]])
#  aQOOHb(+M) <=> aQOOHg(+M)                           1.000e+00 0.000     0.000
#      TCHEB/ 180.000   1500.000 /
#      PCHEB/ 0.010     98.692   /
#      CHEB/ 10 8/
#      CHEB/ -1.365e+01   2.410e+00    -3.814e-01   -8.621e-02   -8.177e-04  /
#      CHEB/ 1.054e-02    1.636e-03    -1.500e-03   3.090e+00    1.870e+00   /
#      CHEB/ 5.688e-01    -2.083e-02   -5.051e-02   -6.890e-03   5.508e-03   /
#      CHEB/ 2.048e-03    -2.773e+00   -3.899e-01   2.997e-02    1.533e-01   /
#      CHEB/ 1.548e-02    -1.490e-02   -4.473e-03   1.073e-03    -1.595e+00  /
#      CHEB/ -3.346e-01   -1.058e-01   3.461e-02    1.886e-02    2.485e-03   /
#      CHEB/ -5.858e-04   -7.727e-04   -8.818e-01   -1.413e-02   -2.619e-02  /
#      CHEB/ -2.081e-03   4.783e-04    -9.016e-04   1.776e-03    7.849e-04   /
#      CHEB/ -5.067e-01   -3.310e-02   3.951e-03    8.406e-03    7.143e-03   /
#      CHEB/ -2.543e-03   -1.887e-03   4.313e-04    -2.692e-01   -1.114e-01  /
#      CHEB/ -2.561e-02   3.051e-03    1.075e-02    2.001e-03    -1.873e-03  /
#      CHEB/ -6.270e-04   -1.110e-01   -9.093e-02   -3.248e-02   -5.950e-03  /
#      CHEB/ 3.283e-03    2.667e-03    1.280e-04    -2.694e-04   -3.262e-02  /
#      CHEB/ -2.179e-02   -2.028e-02   -4.366e-03   -6.349e-04   8.655e-04   /
#      CHEB/ 1.907e-04    -1.425e-04   3.806e-02    6.742e-03    -1.453e-02  /
#      CHEB/ -3.828e-03   1.357e-03    7.460e-04    -4.202e-04   -3.417e-04  /
#  aQOOH[O](+M) <=> aQOOHg(+M)                         1.000e+00 0.000     0.000
#      TCHEB/ 180.000   1500.000 /
#      PCHEB/ 0.010     98.692   /
#      CHEB/ 10 8/
#      CHEB/ -5.822e+00   3.460e+00    -3.617e-01   5.298e-02    1.174e-03   /
#      CHEB/ -3.167e-03   3.998e-03    -1.904e-03   -8.340e+00   4.494e-01   /
#      CHEB/ 2.984e-01    -1.136e-01   7.573e-03    1.517e-02    -3.407e-03  /
#      CHEB/ 1.191e-04    -3.755e+00   -2.510e-01   -9.962e-02   8.422e-03   /
#      CHEB/ 7.490e-03    3.730e-04    -2.497e-03   2.674e-04    -1.452e+00  /
#      CHEB/ -1.356e-01   -1.025e-01   -1.004e-03   2.613e-03    -2.266e-03  /
#      CHEB/ 1.332e-03    8.340e-04    -6.335e-01   -4.721e-02   2.247e-02   /
#      CHEB/ -1.367e-03   -1.565e-02   -2.847e-03   3.316e-03    6.243e-04   /