units(length='cm', time='s', quantity='mol', act_energy='kcal/mol')

ideal_gas(name='gas',
          elements="H D T C Ci O Oi N Ne Ar He Si S F Cl Br I X",
          species="""OH             bQOOH[O]       acetone
                     H2O            balkoxyketone  ibutenol
                     trisub_epoxy   bQOOHg         CH2O
                     galkene        O2             bR
                     bQOOHa         bRO2           disub_epoxy
                     HO2""",
          reactions='all',
          initial_state=state(temperature=300.0, pressure=OneAtm))

#-------------------------------------------------------------------------------
# Element data
#-------------------------------------------------------------------------------

element(symbol='Ci', atomic_mass=13.003)
element(symbol='D', atomic_mass=2.014)
element(symbol='Oi', atomic_mass=18.0)
element(symbol='T', atomic_mass=3.016)
element(symbol='X', atomic_mass=195.083)
#-------------------------------------------------------------------------------
# Species data
#-------------------------------------------------------------------------------

species(name='OH',
        atoms='H:1 O:1',
        thermo=(NASA([10.00, 984.14],
                     [ 3.49686242E+00,  1.83973160E-04, -9.97634499E-07,
                       1.56942783E-09, -6.10128175E-13,  3.41673934E+03,
                       1.48093120E+00]),
                NASA([984.14, 3000.00],
                     [ 3.45221464E+00, -2.95124034E-04,  7.39418622E-07,
                      -2.89309866E-10,  3.53041498E-14,  3.45751599E+03,
                       1.85813897E+00])))

species(name='bQOOH[O]',
        atoms='C:4 H:9 O:3',
        thermo=(NASA([10.00, 338.69],
                     [ 3.60915854E+00,  3.39069566E-02,  2.22227265E-04,
                      -8.23527342E-07,  8.56246333E-10, -2.34238535E+04,
                       1.23284605E+01]),
                NASA([338.69, 3000.00],
                     [ 5.03198881E+00,  5.46235886E-02, -3.56935806E-05,
                       1.12371751E-08, -1.35390171E-12, -2.37354362E+04,
                       3.82760723E+00])))

species(name='acetone',
        atoms='C:3 H:6 O:1',
        thermo=(NASA([10.00, 414.35],
                     [ 3.73496166E+00,  3.05743218E-02, -1.26253585E-04,
                       3.66080978E-07, -3.31430437E-10, -2.79896985E+04,
                       8.24936012E+00]),
                NASA([414.35, 3000.00],
                     [ 1.70010292E-01,  3.28431468E-02, -1.80960132E-05,
                       4.82960690E-09, -5.02388538E-13, -2.74183154E+04,
                       2.56372653E+01])))

species(name='H2O',
        atoms='H:2 O:1',
        thermo=(NASA([10.00, 773.84],
                     [ 4.00473541E+00, -2.39729134E-04,  8.11862955E-07,
                       1.47891862E-09, -1.19783539E-12, -3.03533807E+04,
                      -9.96254147E-02]),
                NASA([773.84, 3000.00],
                     [ 3.52133374E+00,  1.05377009E-03,  6.40722099E-07,
                      -3.86240235E-10,  5.49243294E-14, -3.02424794E+04,
                       2.34173094E+00])))

species(name='balkoxyketone',
        atoms='C:4 H:7 O:2',
        thermo=(NASA([10.00, 269.93],
                     [ 3.81931151E+00,  1.68519318E-02,  2.42742224E-04,
                      -9.64821161E-07,  1.18509335E-09, -2.14028614E+04,
                       1.20521854E+01]),
                NASA([269.93, 3000.00],
                     [ 3.57555944E+00,  4.28868089E-02, -2.65390705E-05,
                       7.99659117E-09, -9.32983470E-13, -2.14713895E+04,
                       1.13957990E+01])))

species(name='ibutenol',
        atoms='C:4 H:8 O:1',
        thermo=(NASA([10.00, 135.97],
                     [ 3.95714996E+00,  5.72646980E-03,  4.63611760E-04,
                      -3.04137514E-06,  6.85019471E-09, -2.37886706E+04,
                       8.21931848E+00]),
                NASA([135.97, 3000.00],
                     [ 3.32467612E+00,  3.69033556E-02, -1.89960416E-05,
                       4.73417677E-09, -4.59705291E-13, -2.37830920E+04,
                       9.58133237E+00])))

species(name='trisub_epoxy',
        atoms='C:4 H:8 O:2',
        thermo=(NASA([10.00, 209.19],
                     [ 3.75295042E+00,  2.37546930E-02,  1.26610110E-04,
                      -4.78364365E-07,  5.79468168E-10, -4.14349511E+04,
                       1.12739684E+01]),
                NASA([209.19, 3000.00],
                     [ 2.64185254E+00,  4.50006531E-02, -2.57361066E-05,
                       7.15266054E-09, -7.72980731E-13, -4.13884655E+04,
                       1.48960343E+01])))

species(name='bQOOHg',
        atoms='C:4 H:9 O:3',
        thermo=(NASA([10.00, 441.09],
                     [ 3.56595280E+00,  3.36073467E-02,  2.03462772E-04,
                      -5.98977617E-07,  4.83271168E-10, -2.46750867E+04,
                       1.33537891E+01]),
                NASA([441.09, 3000.00],
                     [ 6.09031192E+00,  5.80517622E-02, -4.06392697E-05,
                       1.32574026E-08, -1.62501077E-12, -2.53582721E+04,
                      -1.97849715E+00])))

species(name='CH2O',
        atoms='C:1 H:2 O:1',
        thermo=(NASA([10.00, 601.31],
                     [ 4.03190845E+00, -1.93233367E-03,  8.89743345E-06,
                       2.98105926E-09, -7.90813886E-12, -1.42276270E+04,
                       3.47574660E+00]),
                NASA([601.31, 3000.00],
                     [ 1.40134195E+00,  9.48858016E-03, -4.43088317E-06,
                       9.48452194E-10, -7.43790219E-14, -1.38013869E+04,
                       1.57423780E+01])))

species(name='galkene',
        atoms='C:4 H:8 O:1',
        thermo=(NASA([10.00, 383.47],
                     [ 3.84035604E+00,  1.20378740E-02,  1.87486319E-04,
                      -5.44759148E-07,  4.80711015E-10, -2.15014363E+04,
                       1.02570291E+01]),
                NASA([383.47, 3000.00],
                     [ 4.00413385E+00,  3.79025144E-02, -2.15435710E-05,
                       6.15213311E-09, -6.97446345E-13, -2.17167256E+04,
                       6.98052628E+00])))

species(name='O2',
        atoms='O:2',
        thermo=(NASA([10.00, 605.96],
                     [ 3.50743498E+00, -4.43860349E-04,  1.45938058E-06,
                       1.61509333E-09, -2.32050052E-12, -9.24756224E+02,
                       4.72183634E+00]),
                NASA([605.96, 3000.00],
                     [ 2.87462882E+00,  2.17840991E-03, -1.18262921E-06,
                       2.86910493E-10, -2.53297146E-14, -8.19517838E+02,
                       7.69331810E+00])))

species(name='bR',
        atoms='C:4 H:9 O:1',
        thermo=(NASA([10.00, 483.43],
                     [ 3.38164846E+00,  5.97142637E-02, -1.58320095E-04,
                       3.04908893E-07, -2.13091806E-10, -1.10556121E+04,
                       1.09226843E+01]),
                NASA([483.43, 3000.00],
                     [ 2.33428824E+00,  4.22094427E-02, -2.28029290E-05,
                       6.04614564E-09, -6.30240159E-13, -1.06485301E+04,
                       1.83772893E+01])))

species(name='bQOOHa',
        atoms='C:4 H:9 O:3',
        thermo=(NASA([10.00, 390.53],
                     [ 3.54969236E+00,  3.76592474E-02,  1.76622653E-04,
                      -5.98063750E-07,  5.45069236E-10, -2.79647294E+04,
                       1.31518761E+01]),
                NASA([390.53, 3000.00],
                     [ 5.33564209E+00,  5.64935715E-02, -3.83214298E-05,
                       1.22990604E-08, -1.49549987E-12, -2.83873394E+04,
                       2.59015836E+00])))

species(name='bRO2',
        atoms='C:4 H:9 O:3',
        thermo=(NASA([10.00, 461.39],
                     [ 3.53964713E+00,  3.88723795E-02,  9.57420148E-05,
                      -2.80380499E-07,  2.09647462E-10, -3.13132153E+04,
                       1.18803618E+01]),
                NASA([461.39, 3000.00],
                     [ 3.47201723E+00,  6.00510247E-02, -4.00567321E-05,
                       1.25663813E-08, -1.49496682E-12, -3.15261621E+04,
                       9.77903975E+00])))

species(name='disub_epoxy',
        atoms='C:4 H:8 O:2',
        thermo=(NASA([10.00, 549.41],
                     [ 3.89863211E+00,  5.97532637E-03,  1.66685676E-04,
                      -3.10743768E-07,  1.78330192E-10, -3.80230632E+04,
                       1.13847308E+01]),
                NASA([549.41, 3000.00],
                     [-6.40277648E-01,  6.05960003E-02, -4.13427220E-05,
                       1.31555461E-08, -1.57685017E-12, -3.78499463E+04,
                       2.76005436E+01])))

species(name='HO2',
        atoms='H:1 O:2',
        thermo=(NASA([10.00, 891.11],
                     [ 4.02887004E+00, -1.75769289E-03,  1.08726004E-05,
                      -1.13812972E-08,  3.90113097E-12,  4.95165001E+02,
                       4.69302008E+00]),
                NASA([891.11, 3000.00],
                     [ 3.06571044E+00,  4.28505005E-03, -2.19325920E-06,
                       5.58882699E-10, -5.61246669E-14,  5.98557610E+02,
                       8.84564156E+00])))

#-------------------------------------------------------------------------------
# Reaction data
#-------------------------------------------------------------------------------

# Reaction 1
chebyshev_reaction('bQOOHg (+ M) <=> bRO2 (+ M)',
                   Tmin=180.0, Tmax=1500.0,
                   Pmin=(0.01, 'atm'), Pmax=(98.692, 'atm'),
                   coeffs=[[-1.66300e+00,  8.70500e-01, -8.16400e-02, -8.74500e-03,  9.48000e-03,  8.17700e-04, -1.19600e-03,  4.33400e-05],
                           [ 1.03500e+00,  1.28900e+00, -8.29700e-02, -1.18500e-02,  1.29500e-02,  9.31900e-04, -1.50800e-03,  1.11700e-04],
                           [-2.41000e+00,  3.85200e-01,  3.71500e-02,  1.01200e-02, -1.03100e-04, -4.40300e-04,  1.54300e-04,  1.64000e-04],
                           [-1.84900e+00, -2.40800e-01,  5.63200e-02,  2.93100e-02, -5.86200e-03, -1.66800e-03,  9.47100e-04,  1.75700e-04],
                           [-1.15700e+00, -3.52000e-01, -1.90900e-03,  2.13500e-02, -1.18900e-03, -1.09400e-03,  3.69300e-04,  6.17400e-05],
                           [-5.84200e-01, -1.86700e-01, -4.45300e-02, -3.52700e-03,  3.15700e-03,  9.94300e-04, -3.31900e-04, -1.42000e-04],
                           [-2.16500e-01, -2.56800e-02, -3.77600e-02, -1.81500e-02,  1.07900e-03,  1.83800e-03, -1.51000e-04, -1.78400e-04],
                           [-4.41400e-02,  3.81400e-02, -9.40800e-03, -1.35800e-02, -2.95200e-03,  3.97400e-04,  3.42800e-04,  4.35100e-05],
                           [-5.57600e-03,  3.95000e-02,  9.80600e-03, -1.26500e-03, -3.57500e-03, -1.36100e-03,  2.87900e-04,  2.34800e-04],
                           [ 2.87400e-02,  2.37700e-02,  1.31700e-02,  6.32300e-03, -9.35200e-04, -1.57300e-03, -1.87700e-04,  1.45800e-04]])

# Reaction 2
chebyshev_reaction('bQOOHa (+ M) <=> bRO2 (+ M)',
                   Tmin=180.0, Tmax=1500.0,
                   Pmin=(0.01, 'atm'), Pmax=(98.692, 'atm'),
                   coeffs=[[-5.53800e+00,  2.22000e+00, -2.65500e-01, -8.63600e-03,  1.89900e-02, -8.88900e-03, -2.03100e-03,  2.39000e-03],
                           [ 1.91400e+00,  7.49700e-01,  4.45400e-01, -3.50700e-02, -4.96600e-02,  8.83800e-03,  3.48100e-03, -1.95800e-03],
                           [-2.55900e+00, -1.36200e-01,  1.95700e-02,  6.14400e-02,  6.76600e-03, -5.54600e-03, -6.30400e-04,  8.76400e-05],
                           [-1.69800e+00, -3.32300e-01, -1.43300e-01,  1.81600e-02,  2.52900e-02,  2.01900e-03, -2.71500e-03, -4.70400e-04],
                           [-9.91600e-01, -1.18900e-01, -9.66200e-02, -2.12800e-02,  6.39100e-03,  3.66900e-03,  1.64300e-04, -1.86300e-04],
                           [-5.24100e-01,  7.65500e-02, -7.40700e-03, -2.46900e-02, -7.93600e-03,  7.84700e-04,  1.32800e-03,  2.37300e-04],
                           [-2.50100e-01,  9.28500e-02,  3.06000e-02, -9.10500e-03, -6.92700e-03, -5.93600e-04,  5.85300e-04,  4.44300e-05],
                           [-1.22200e-01,  2.27800e-02,  1.95700e-02,  3.56700e-03, -5.89200e-06, -3.96800e-04, -2.87700e-04, -1.06800e-04],
                           [-1.86600e-02, -4.62600e-02,  3.85400e-03,  7.94400e-03,  1.29800e-03, -1.48600e-04,  3.20500e-05, -7.29800e-05],
                           [-1.87200e-02, -1.52200e-02, -1.07300e-02, -1.81900e-06,  1.74500e-03,  1.66800e-04, -1.57100e-04,  1.54900e-04]])

# Reaction 3
chebyshev_reaction('bQOOH[O] (+ M) <=> bRO2 (+ M)',
                   Tmin=180.0, Tmax=1500.0,
                   Pmin=(0.01, 'atm'), Pmax=(98.692, 'atm'),
                   coeffs=[[ 5.68400e+00,  1.31200e+00, -1.71500e-01, -1.03300e-02,  6.71800e-03,  1.88000e-03, -4.13100e-04, -1.55300e-04],
                           [-4.10500e+00,  7.59500e-01,  8.78800e-02, -2.19600e-02, -7.55000e-03,  2.51800e-03,  1.48700e-03, -1.47100e-04],
                           [-3.29500e+00, -1.27100e-01, -2.67400e-03,  1.77900e-02,  4.93700e-03, -7.10300e-04, -6.68400e-04,  7.21800e-05],
                           [-1.71300e+00, -1.87300e-01, -8.16300e-02, -8.15300e-03,  7.38900e-03,  3.39000e-03, -3.50700e-04, -5.86300e-04],
                           [-8.36600e-01, -5.59600e-02, -4.54000e-02, -1.85300e-02, -2.18600e-03,  1.77000e-03,  8.32400e-04, -6.93800e-05],
                           [-4.32300e-01,  1.64900e-02,  3.37600e-04, -4.65000e-03, -3.14500e-03, -1.28500e-03, -9.24100e-05,  1.79200e-04],
                           [-2.39100e-01,  6.01900e-03,  1.02000e-02,  5.15900e-03,  1.41400e-03, -6.88600e-04, -7.36200e-04, -2.16100e-04],
                           [-1.23800e-01, -1.58000e-02, -7.28700e-04,  2.79700e-03,  2.31000e-03,  9.11700e-04, -6.72100e-05, -2.66000e-04],
                           [-4.15600e-02, -1.56300e-02, -4.19800e-03, -3.18300e-03, -1.45500e-04,  7.15200e-04,  4.81200e-04,  7.11400e-05],
                           [-2.13400e-03,  8.51500e-03, -3.57200e-03, -2.39700e-03, -1.75100e-03, -3.52500e-04,  1.91400e-04,  1.81300e-04]])

# Reaction 4
chebyshev_reaction('O2 + bR (+ M) <=> bRO2 (+ M)',
                   Tmin=180.0, Tmax=1500.0,
                   Pmin=(0.01, 'atm'), Pmax=(98.692, 'atm'),
                   coeffs=[[ 1.49400e+01,  8.93200e-01, -8.93100e-02,  8.31600e-03, -1.05700e-03,  4.67900e-04, -1.86400e-04,  3.84300e-05],
                           [-3.24100e+00,  9.31600e-01,  2.70300e-02, -9.21000e-03, -9.06800e-04,  2.60500e-04,  5.60000e-05, -1.91500e-05],
                           [-1.98400e+00,  2.74900e-01,  4.92900e-02,  2.51600e-03, -4.94300e-04, -3.17300e-04,  4.03000e-05, -2.21100e-07],
                           [-1.17400e+00,  2.58800e-02,  1.72400e-02,  2.96800e-03,  9.23400e-04, -1.33300e-04, -1.39200e-06, -1.20900e-05],
                           [-6.64300e-01, -3.25000e-02,  9.04200e-04, -9.66000e-06,  6.35500e-04,  4.42800e-06,  2.89600e-05, -4.80400e-06],
                           [-3.58600e-01, -3.86600e-02, -2.49800e-03, -8.40200e-04,  2.08100e-04, -4.11500e-05,  2.16800e-05,  2.70800e-06],
                           [-1.77200e-01, -3.15800e-02, -3.24400e-03, -6.43400e-04,  8.43400e-05, -3.72300e-05,  2.31000e-06,  9.47400e-07],
                           [-7.07000e-02, -2.12500e-02, -3.26700e-03, -4.85000e-04,  2.50100e-05, -5.98900e-06, -9.90200e-07, -3.35800e-07],
                           [-1.25500e-02, -1.01800e-02, -2.70300e-03, -3.71200e-04, -4.46000e-05,  8.93200e-06, -9.64700e-07,  3.32600e-07],
                           [ 1.38700e-02, -7.87000e-04, -1.59000e-03, -2.40400e-04, -8.83300e-05,  8.66500e-06, -1.69400e-06,  4.60400e-07]])
#  bRO2(+M) <=> bQOOHg(+M)                             1.000e+00 0.000     0.000
#      TCHEB/ 180.000   1500.000 /
#      PCHEB/ 0.010     98.692   /
#      CHEB/ 10 8/
#      CHEB/ -9.679e+00   8.705e-01    -8.164e-02   -8.745e-03   9.480e-03   /
#      CHEB/ 8.177e-04    -1.196e-03   4.334e-05    8.476e+00    1.289e+00   /
#      CHEB/ -8.297e-02   -1.185e-02   1.295e-02    9.319e-04    -1.508e-03  /
#      CHEB/ 1.117e-04    -2.264e+00   3.852e-01    3.715e-02    1.012e-02   /
#      CHEB/ -1.031e-04   -4.403e-04   1.543e-04    1.640e-04    -1.811e+00  /
#      CHEB/ -2.408e-01   5.632e-02    2.931e-02    -5.862e-03   -1.668e-03  /
#      CHEB/ 9.471e-04    1.757e-04    -1.151e+00   -3.520e-01   -1.909e-03  /
#      CHEB/ 2.135e-02    -1.189e-03   -1.094e-03   3.693e-04    6.174e-05   /
#      CHEB/ -5.843e-01   -1.867e-01   -4.453e-02   -3.527e-03   3.157e-03   /
#      CHEB/ 9.943e-04    -3.319e-04   -1.420e-04   -2.171e-01   -2.568e-02  /
#      CHEB/ -3.776e-02   -1.815e-02   1.079e-03    1.838e-03    -1.510e-04  /
#      CHEB/ -1.784e-04   -4.459e-02   3.814e-02    -9.408e-03   -1.358e-02  /
#      CHEB/ -2.952e-03   3.974e-04    3.428e-04    4.351e-05    -5.900e-03  /
#      CHEB/ 3.950e-02    9.806e-03    -1.265e-03   -3.575e-03   -1.361e-03  /
#      CHEB/ 2.879e-04    2.348e-04    2.856e-02    2.377e-02    1.317e-02   /
#      CHEB/ 6.323e-03    -9.352e-04   -1.573e-03   -1.877e-04   1.458e-04   /

# Reaction 5
chebyshev_reaction('bQOOHa (+ M) <=> bQOOHg (+ M)',
                   Tmin=180.0, Tmax=1500.0,
                   Pmin=(0.01, 'atm'), Pmax=(98.692, 'atm'),
                   coeffs=[[-1.74300e+01,  2.12200e+00, -2.41600e-01, -1.07400e-01,  8.19100e-03,  3.48900e-03, -8.96800e-04,  8.96100e-04],
                           [ 5.85100e+00,  1.59700e+00,  3.74000e-01,  6.60000e-02, -2.96500e-02, -1.04200e-02,  1.68600e-03,  1.13600e-03],
                           [-2.91200e+00, -4.31500e-01, -8.54300e-02,  1.00600e-01,  4.95200e-02, -3.09800e-04, -7.26800e-03, -1.50700e-03],
                           [-2.26200e+00, -6.28000e-01, -6.94400e-02,  7.86900e-03,  9.27900e-03,  8.28100e-03,  1.74800e-03, -7.78100e-04],
                           [-1.11200e+00, -2.30000e-01, -4.48800e-02, -2.84900e-02, -1.09200e-02,  3.99600e-03,  3.41500e-03,  1.87500e-04],
                           [-4.25200e-01,  9.57300e-03, -4.81000e-02, -2.25600e-02, -2.92900e-03, -1.89300e-04,  6.55600e-05,  2.01100e-04],
                           [-1.37400e-01,  7.68200e-02, -1.26000e-02, -1.05600e-02, -9.81500e-04, -1.30300e-03, -6.71400e-04,  1.60600e-04],
                           [-3.65300e-02,  6.18600e-02,  1.80100e-02, -2.33900e-03, -2.80200e-03, -6.67300e-04,  1.69900e-04,  2.79200e-05],
                           [-1.92400e-02,  2.68900e-02,  1.94300e-02,  1.47200e-03, -2.12000e-03,  1.31900e-04,  3.23300e-04, -1.38300e-04],
                           [ 6.35300e-03, -2.10700e-03,  6.69400e-03,  5.09000e-03,  1.65600e-05, -8.71100e-04, -3.79800e-05,  2.15000e-04]])

# Reaction 6
chebyshev_reaction('bQOOH[O] (+ M) <=> bQOOHg (+ M)',
                   Tmin=180.0, Tmax=1500.0,
                   Pmin=(0.01, 'atm'), Pmax=(98.692, 'atm'),
                   coeffs=[[-6.41900e+00,  1.07600e+00, -2.82300e-01, -8.33000e-02,  1.34800e-02,  6.53500e-03,  3.09600e-04,  4.62300e-04],
                           [-6.84200e-01,  1.62200e+00,  2.23500e-01,  4.54500e-03, -2.81300e-02, -2.67400e-03,  3.92300e-03,  1.21200e-03],
                           [-3.20200e+00, -2.06200e-01, -6.22900e-02,  9.19000e-02,  3.58200e-02, -7.34500e-03, -7.13800e-03, -7.51600e-05],
                           [-2.15300e+00, -5.55600e-01, -1.06500e-01,  1.42100e-02,  1.99300e-02,  8.69700e-03, -1.15900e-03, -2.46600e-03],
                           [-1.07400e+00, -2.87600e-01, -4.57200e-02, -2.29600e-02, -1.06300e-02,  4.82000e-03,  4.35200e-03, -2.57100e-05],
                           [-4.49000e-01, -3.64800e-02, -9.73200e-03, -1.67300e-02, -1.03200e-02, -2.27400e-03,  1.39600e-03,  1.29900e-03],
                           [-1.63300e-01,  3.17000e-02, -2.24400e-03, -5.57600e-03, -2.76200e-04, -2.04000e-03, -1.40700e-03,  3.03700e-04],
                           [-4.68200e-02,  2.40600e-02, -1.04600e-04, -2.87200e-03,  1.46400e-03,  3.29100e-04, -7.72500e-04, -4.20000e-04],
                           [-6.59400e-03,  2.72800e-02,  1.60500e-03, -1.62800e-03, -9.64100e-04,  1.52500e-04,  1.67300e-04, -8.94800e-05],
                           [ 1.73100e-02,  1.62500e-02,  8.42200e-03,  3.19000e-03, -1.71300e-03, -1.16300e-03,  2.37100e-04,  1.05000e-04]])

# Reaction 7
chebyshev_reaction('O2 + bR (+ M) <=> bQOOHg (+ M)',
                   Tmin=180.0, Tmax=1500.0,
                   Pmin=(0.01, 'atm'), Pmax=(98.692, 'atm'),
                   coeffs=[[ 6.76500e+00,  1.69600e+00, -5.88500e-01, -9.29700e-02,  9.04700e-02, -3.05200e-03, -1.83200e-02,  5.71400e-03],
                           [-2.91100e+00,  1.35800e+00,  4.54000e-01, -1.69300e-02, -8.49900e-02,  1.43500e-02,  1.75100e-02, -7.81300e-03],
                           [-2.08500e+00,  9.96400e-02,  2.51400e-01,  4.48700e-02, -2.76200e-02, -5.49300e-03,  3.65600e-03,  1.03900e-03],
                           [-1.21600e+00, -2.36300e-01,  5.99900e-02,  4.09800e-02,  1.42000e-03, -6.07800e-03, -9.81700e-04,  1.27100e-03],
                           [-6.01700e-01, -1.93300e-01, -2.72700e-02,  1.24100e-02,  1.00900e-02, -6.56900e-04, -1.86800e-03, -2.29300e-05],
                           [-2.46200e-01, -8.90100e-02, -4.43800e-02, -8.52500e-03,  7.29900e-03,  2.23400e-03, -7.13200e-04, -4.17100e-04],
                           [-6.56000e-02, -7.73600e-03, -2.58800e-02, -1.66300e-02,  7.43100e-04,  2.59200e-03,  3.07400e-04, -3.00000e-04],
                           [ 8.70400e-03,  2.61400e-02, -8.02600e-04, -1.10800e-02, -3.94500e-03,  7.56200e-04,  7.55500e-04,  6.24000e-05],
                           [ 2.40300e-02,  2.91600e-02,  1.47200e-02, -2.04800e-03, -4.25400e-03, -5.53300e-04,  3.28900e-04,  1.35300e-04],
                           [ 1.76100e-02,  1.11500e-02,  1.48200e-02,  6.54000e-03, -1.76200e-03, -1.44500e-03, -2.91400e-05,  1.59700e-04]])
#  bRO2(+M) <=> bQOOHa(+M)                             1.000e+00 0.000     0.000
#      TCHEB/ 180.000   1500.000 /
#      PCHEB/ 0.010     98.692   /
#      CHEB/ 10 8/
#      CHEB/ -9.214e+00   2.220e+00    -2.655e-01   -8.636e-03   1.899e-02   /
#      CHEB/ -8.889e-03   -2.031e-03   2.390e-03    5.714e+00    7.497e-01   /
#      CHEB/ 4.454e-01    -3.507e-02   -4.966e-02   8.838e-03    3.481e-03   /
#      CHEB/ -1.958e-03   -2.504e+00   -1.362e-01   1.957e-02    6.144e-02   /
#      CHEB/ 6.766e-03    -5.546e-03   -6.304e-04   8.764e-05    -1.696e+00  /
#      CHEB/ -3.323e-01   -1.433e-01   1.816e-02    2.529e-02    2.019e-03   /
#      CHEB/ -2.715e-03   -4.704e-04   -9.964e-01   -1.189e-01   -9.662e-02  /
#      CHEB/ -2.128e-02   6.391e-03    3.669e-03    1.643e-04    -1.863e-04  /
#      CHEB/ -5.269e-01   7.655e-02    -7.407e-03   -2.469e-02   -7.936e-03  /
#      CHEB/ 7.847e-04    1.328e-03    2.373e-04    -2.514e-01   9.285e-02   /
#      CHEB/ 3.060e-02    -9.105e-03   -6.927e-03   -5.936e-04   5.853e-04   /
#      CHEB/ 4.443e-05    -1.229e-01   2.278e-02    1.957e-02    3.567e-03   /
#      CHEB/ -5.892e-06   -3.968e-04   -2.877e-04   -1.068e-04   -1.901e-02  /
#      CHEB/ -4.626e-02   3.854e-03    7.944e-03    1.298e-03    -1.486e-04  /
#      CHEB/ 3.205e-05    -7.298e-05   -1.884e-02   -1.522e-02   -1.073e-02  /
#      CHEB/ -1.819e-06   1.745e-03    1.668e-04    -1.571e-04   1.549e-04   /
#  bQOOHg(+M) <=> bQOOHa(+M)                           1.000e+00 0.000     0.000
#      TCHEB/ 180.000   1500.000 /
#      PCHEB/ 0.010     98.692   /
#      CHEB/ 10 8/
#      CHEB/ -1.309e+01   2.122e+00    -2.416e-01   -1.074e-01   8.191e-03   /
#      CHEB/ 3.489e-03    -8.968e-04   8.961e-04    2.211e+00    1.597e+00   /
#      CHEB/ 3.740e-01    6.600e-02    -2.965e-02   -1.042e-02   1.686e-03   /
#      CHEB/ 1.136e-03    -3.003e+00   -4.315e-01   -8.543e-02   1.006e-01   /
#      CHEB/ 4.952e-02    -3.098e-04   -7.268e-03   -1.507e-03   -2.298e+00  /
#      CHEB/ -6.280e-01   -6.944e-02   7.869e-03    9.279e-03    8.281e-03   /
#      CHEB/ 1.748e-03    -7.781e-04   -1.123e+00   -2.300e-01   -4.488e-02  /
#      CHEB/ -2.849e-02   -1.092e-02   3.996e-03    3.415e-03    1.875e-04   /
#      CHEB/ -4.279e-01   9.573e-03    -4.810e-02   -2.256e-02   -2.929e-03  /
#      CHEB/ -1.893e-04   6.556e-05    2.011e-04    -1.382e-01   7.682e-02   /
#      CHEB/ -1.260e-02   -1.056e-02   -9.815e-04   -1.303e-03   -6.714e-04  /
#      CHEB/ 1.606e-04    -3.680e-02   6.186e-02    1.801e-02    -2.339e-03  /
#      CHEB/ -2.802e-03   -6.673e-04   1.699e-04    2.792e-05    -1.926e-02  /
#      CHEB/ 2.689e-02    1.943e-02    1.472e-03    -2.120e-03   1.319e-04   /
#      CHEB/ 3.233e-04    -1.383e-04   6.420e-03    -2.107e-03   6.694e-03   /
#      CHEB/ 5.090e-03    1.656e-05    -8.711e-04   -3.798e-05   2.150e-04   /

# Reaction 8
chebyshev_reaction('bQOOH[O] (+ M) <=> bQOOHa (+ M)',
                   Tmin=180.0, Tmax=1500.0,
                   Pmin=(0.01, 'atm'), Pmax=(98.692, 'atm'),
                   coeffs=[[-6.48100e+00,  2.29600e+00, -3.36000e-01, -9.33900e-02,  6.45100e-04,  1.48200e-03,  2.07500e-03,  1.39500e-03],
                           [-2.83700e+00,  1.16600e+00,  5.86300e-01,  1.13700e-02, -5.67100e-02, -3.49500e-03,  3.63300e-03,  5.19000e-04],
                           [-3.51100e+00, -7.87100e-01, -9.93000e-02,  1.12300e-01,  4.35800e-02, -3.03200e-03, -6.51300e-03, -1.63600e-03],
                           [-2.04300e+00, -5.93300e-01, -2.61900e-01, -5.36300e-03,  3.20300e-02,  9.96200e-03, -9.20100e-04, -1.48000e-03],
                           [-9.40000e-01, -3.21200e-02, -1.17600e-01, -5.45800e-02, -6.85500e-03,  4.36300e-03,  3.05200e-03,  6.91500e-04],
                           [-4.11100e-01,  1.92200e-01,  1.36300e-02, -3.06300e-02, -1.40400e-02, -1.92100e-03,  9.99500e-04,  6.59800e-04],
                           [-1.96400e-01,  1.28000e-01,  5.09600e-02,  1.92800e-03, -3.58100e-03, -1.92500e-03, -1.00700e-03, -3.47000e-04],
                           [-1.00600e-01,  1.09100e-02,  2.77400e-02,  1.24900e-02,  3.23100e-03,  3.20300e-05, -6.36900e-04, -4.23900e-04],
                           [-4.33800e-02, -5.05000e-02,  1.97600e-03,  5.57400e-03,  1.67200e-03,  9.19400e-04,  4.96600e-04, -5.10700e-06],
                           [-9.50500e-03, -2.06400e-02, -1.58200e-02, -1.90900e-03, -3.74900e-05,  4.22800e-05,  3.93600e-04,  3.32700e-04]])

# Reaction 9
chebyshev_reaction('O2 + bR (+ M) <=> bQOOHa (+ M)',
                   Tmin=180.0, Tmax=1500.0,
                   Pmin=(0.01, 'atm'), Pmax=(98.692, 'atm'),
                   coeffs=[[ 4.92900e+00,  3.20600e+00,  1.26300e-01, -1.81900e-01, -8.63400e-02, -1.82200e-03,  1.31000e-02,  4.85600e-03],
                           [-3.04400e+00, -6.70200e-01,  1.40800e-01,  2.32800e-01,  7.21900e-02, -1.21800e-02, -1.85200e-02, -4.63000e-03],
                           [-2.35900e+00, -3.18600e-01, -6.36900e-02,  3.91900e-02,  2.22300e-02,  7.82800e-03,  2.25300e-03, -1.19400e-03],
                           [-1.30700e+00, -1.38200e-01, -1.12000e-01, -2.60200e-02,  1.08900e-02,  5.89000e-03,  9.69200e-04,  1.45200e-04],
                           [-5.13600e-01, -2.05800e-02, -5.27400e-02, -2.93400e-02, -1.80600e-03,  1.84400e-03,  5.87800e-04,  2.30400e-04],
                           [-1.37200e-01,  3.38600e-02,  6.64700e-03, -1.26800e-02, -7.67000e-03, -2.56300e-04,  6.45300e-04,  4.84600e-05],
                           [-3.21500e-02,  4.15700e-02,  2.71600e-02,  3.47800e-03, -4.48800e-03, -1.43800e-03,  1.01900e-04,  1.77300e-05],
                           [-2.40900e-02,  1.86300e-02,  1.57300e-02,  7.42900e-03,  1.73700e-03, -8.16300e-04, -4.44000e-04, -7.45500e-06],
                           [-2.74400e-02, -1.39200e-02,  5.18800e-04,  3.87500e-03,  2.79800e-03,  5.26600e-04, -2.63200e-04, -8.11400e-05],
                           [-1.56200e-03, -2.19400e-02, -9.83200e-03, -1.04700e-03,  4.85400e-04,  8.91300e-04,  3.50300e-04, -8.87900e-06]])
#  bRO2(+M) <=> bQOOH[O](+M)                           1.000e+00 0.000     0.000
#      TCHEB/ 180.000   1500.000 /
#      PCHEB/ 0.010     98.692   /
#      CHEB/ 10 8/
#      CHEB/ -4.537e+00   1.312e+00    -1.715e-01   -1.033e-02   6.718e-03   /
#      CHEB/ 1.880e-03    -4.131e-04   -1.553e-04   4.392e+00    7.595e-01   /
#      CHEB/ 8.788e-02    -2.196e-02   -7.550e-03   2.518e-03    1.487e-03   /
#      CHEB/ -1.471e-04   -3.301e+00   -1.271e-01   -2.674e-03   1.779e-02   /
#      CHEB/ 4.937e-03    -7.103e-04   -6.684e-04   7.218e-05    -1.735e+00  /
#      CHEB/ -1.873e-01   -8.163e-02   -8.153e-03   7.389e-03    3.390e-03   /
#      CHEB/ -3.507e-04   -5.863e-04   -8.474e-01   -5.596e-02   -4.540e-02  /
#      CHEB/ -1.853e-02   -2.186e-03   1.770e-03    8.324e-04    -6.938e-05  /
#      CHEB/ -4.363e-01   1.649e-02    3.376e-04    -4.650e-03   -3.145e-03  /
#      CHEB/ -1.285e-03   -9.241e-05   1.792e-04    -2.406e-01   6.019e-03   /
#      CHEB/ 1.020e-02    5.159e-03    1.414e-03    -6.886e-04   -7.362e-04  /
#      CHEB/ -2.161e-04   -1.245e-01   -1.580e-02   -7.287e-04   2.797e-03   /
#      CHEB/ 2.310e-03    9.117e-04    -6.721e-05   -2.660e-04   -4.173e-02  /
#      CHEB/ -1.563e-02   -4.198e-03   -3.183e-03   -1.455e-04   7.152e-04   /
#      CHEB/ 4.812e-04    7.114e-05    -2.128e-03   8.515e-03    -3.572e-03  /
#      CHEB/ -2.397e-03   -1.751e-03   -3.525e-04   1.914e-04    1.813e-04   /
#  bQOOHg(+M) <=> bQOOH[O](+M)                         1.000e+00 0.000     0.000
#      TCHEB/ 180.000   1500.000 /
#      PCHEB/ 0.010     98.692   /
#      CHEB/ 10 8/
#      CHEB/ -8.624e+00   1.076e+00    -2.823e-01   -8.330e-02   1.348e-02   /
#      CHEB/ 6.535e-03    3.096e-04    4.623e-04    3.730e-01    1.622e+00   /
#      CHEB/ 2.235e-01    4.545e-03    -2.813e-02   -2.674e-03   3.923e-03   /
#      CHEB/ 1.212e-03    -3.354e+00   -2.062e-01   -6.229e-02   9.190e-02   /
#      CHEB/ 3.582e-02    -7.345e-03   -7.138e-03   -7.516e-05   -2.211e+00  /