units(length='cm', time='s', quantity='mol', act_energy='kcal/mol')

ideal_gas(name='gas',
          elements="H D T C Ci O Oi N Ne Ar He Si S F Cl Br I X",
          species="""OH             bQOOH[O]       acetone
                     H2O            balkoxyketone  ibutenol
                     trisub_epoxy   bQOOHg         CH2O
                     galkene        O2             bR
                     bQOOHa         bRO2           disub_epoxy
                     HO2""",
          reactions='all',
          initial_state=state(temperature=300.0, pressure=OneAtm))

#-------------------------------------------------------------------------------
# Element data
#-------------------------------------------------------------------------------

element(symbol='Ci', atomic_mass=13.003)
element(symbol='D', atomic_mass=2.014)
element(symbol='Oi', atomic_mass=18.0)
element(symbol='T', atomic_mass=3.016)
element(symbol='X', atomic_mass=195.083)
#-------------------------------------------------------------------------------
# Species data
#-------------------------------------------------------------------------------

species(name='OH',
        atoms='H:1 O:1',
        thermo=(NASA([10.00, 984.14],
                     [ 3.49686242E+00,  1.83973160E-04, -9.97634499E-07,
                       1.56942783E-09, -6.10128175E-13,  3.41673934E+03,
                       1.48093120E+00]),
                NASA([984.14, 3000.00],
                     [ 3.45221464E+00, -2.95124034E-04,  7.39418622E-07,
                      -2.89309866E-10,  3.53041498E-14,  3.45751599E+03,
                       1.85813897E+00])))

species(name='bQOOH[O]',
        atoms='C:4 H:9 O:3',
        thermo=(NASA([10.00, 338.69],
                     [ 3.60915854E+00,  3.39069566E-02,  2.22227265E-04,
                      -8.23527342E-07,  8.56246333E-10, -2.21980827E+04,
                       1.23284605E+01]),
                NASA([338.69, 3000.00],
                     [ 5.03198881E+00,  5.46235886E-02, -3.56935806E-05,
                       1.12371751E-08, -1.35390171E-12, -2.25096654E+04,
                       3.82760723E+00])))

species(name='acetone',
        atoms='C:3 H:6 O:1',
        thermo=(NASA([10.00, 414.35],
                     [ 3.73496166E+00,  3.05743218E-02, -1.26253585E-04,
                       3.66080978E-07, -3.31430437E-10, -2.66623080E+04,
                       8.24936012E+00]),
                NASA([414.35, 3000.00],
                     [ 1.70010292E-01,  3.28431468E-02, -1.80960132E-05,
                       4.82960690E-09, -5.02388538E-13, -2.60909249E+04,
                       2.56372653E+01])))

species(name='H2O',
        atoms='H:2 O:1',
        thermo=(NASA([10.00, 773.84],
                     [ 4.00473541E+00, -2.39729134E-04,  8.11862955E-07,
                       1.47891862E-09, -1.19783539E-12, -3.03533807E+04,
                      -9.96254147E-02]),
                NASA([773.84, 3000.00],
                     [ 3.52133374E+00,  1.05377009E-03,  6.40722099E-07,
                      -3.86240235E-10,  5.49243294E-14, -3.02424794E+04,
                       2.34173094E+00])))

species(name='balkoxyketone',
        atoms='C:4 H:7 O:2',
        thermo=(NASA([10.00, 269.93],
                     [ 3.81931151E+00,  1.68519318E-02,  2.42742224E-04,
                      -9.64821161E-07,  1.18509335E-09, -1.98685237E+04,
                       1.20521854E+01]),
                NASA([269.93, 3000.00],
                     [ 3.57555944E+00,  4.28868089E-02, -2.65390705E-05,
                       7.99659117E-09, -9.32983470E-13, -1.99370518E+04,
                       1.13957990E+01])))

species(name='ibutenol',
        atoms='C:4 H:8 O:1',
        thermo=(NASA([10.00, 135.97],
                     [ 3.95714996E+00,  5.72646980E-03,  4.63611760E-04,
                      -3.04137514E-06,  6.85019471E-09, -2.57522228E+04,
                       8.21931848E+00]),
                NASA([135.97, 3000.00],
                     [ 3.32467612E+00,  3.69033556E-02, -1.89960416E-05,
                       4.73417677E-09, -4.59705291E-13, -2.57466442E+04,
                       9.58133237E+00])))

species(name='trisub_epoxy',
        atoms='C:4 H:8 O:2',
        thermo=(NASA([10.00, 209.19],
                     [ 3.75295042E+00,  2.37546930E-02,  1.26610110E-04,
                      -4.78364365E-07,  5.79468168E-10, -4.07174681E+04,
                       1.12739684E+01]),
                NASA([209.19, 3000.00],
                     [ 2.64185254E+00,  4.50006531E-02, -2.57361066E-05,
                       7.15266054E-09, -7.72980731E-13, -4.06709826E+04,
                       1.48960343E+01])))

species(name='bQOOHg',
        atoms='C:4 H:9 O:3',
        thermo=(NASA([10.00, 441.09],
                     [ 3.56595280E+00,  3.36073467E-02,  2.03462772E-04,
                      -5.98977617E-07,  4.83271168E-10, -2.37679118E+04,
                       1.33537891E+01]),
                NASA([441.09, 3000.00],
                     [ 6.09031192E+00,  5.80517622E-02, -4.06392697E-05,
                       1.32574026E-08, -1.62501077E-12, -2.44510973E+04,
                      -1.97849715E+00])))

species(name='CH2O',
        atoms='C:1 H:2 O:1',
        thermo=(NASA([10.00, 601.31],
                     [ 4.03190845E+00, -1.93233367E-03,  8.89743345E-06,
                       2.98105926E-09, -7.90813886E-12, -1.42276270E+04,
                       3.47574660E+00]),
                NASA([601.31, 3000.00],
                     [ 1.40134195E+00,  9.48858016E-03, -4.43088317E-06,
                       9.48452194E-10, -7.43790219E-14, -1.38013869E+04,
                       1.57423780E+01])))

species(name='galkene',
        atoms='C:4 H:8 O:1',
        thermo=(NASA([10.00, 383.47],
                     [ 3.84035604E+00,  1.20378740E-02,  1.87486319E-04,
                      -5.44759148E-07,  4.80711015E-10, -2.02261005E+04,
                       1.02570291E+01]),
                NASA([383.47, 3000.00],
                     [ 4.00413385E+00,  3.79025144E-02, -2.15435710E-05,
                       6.15213311E-09, -6.97446345E-13, -2.04413898E+04,
                       6.98052628E+00])))

species(name='O2',
        atoms='O:2',
        thermo=(NASA([10.00, 605.96],
                     [ 3.50743498E+00, -4.43860349E-04,  1.45938058E-06,
                       1.61509333E-09, -2.32050052E-12, -9.24756224E+02,
                       4.72183634E+00]),
                NASA([605.96, 3000.00],
                     [ 2.87462882E+00,  2.17840991E-03, -1.18262921E-06,
                       2.86910493E-10, -2.53297146E-14, -8.19517838E+02,
                       7.69331810E+00])))

species(name='bR',
        atoms='C:4 H:9 O:1',
        thermo=(NASA([10.00, 483.43],
                     [ 3.38164846E+00,  5.97142637E-02, -1.58320095E-04,
                       3.04908893E-07, -2.13091806E-10, -1.27358161E+04,
                       1.09226843E+01]),
                NASA([483.43, 3000.00],
                     [ 2.33428824E+00,  4.22094427E-02, -2.28029290E-05,
                       6.04614564E-09, -6.30240159E-13, -1.23287341E+04,
                       1.83772893E+01])))

species(name='bQOOHa',
        atoms='C:4 H:9 O:3',
        thermo=(NASA([10.00, 390.53],
                     [ 3.54969236E+00,  3.76592474E-02,  1.76622653E-04,
                      -5.98063750E-07,  5.45069236E-10, -2.60943016E+04,
                       1.31518761E+01]),
                NASA([390.53, 3000.00],
                     [ 5.33564209E+00,  5.64935715E-02, -3.83214298E-05,
                       1.22990604E-08, -1.49549987E-12, -2.65169116E+04,
                       2.59015836E+00])))

species(name='bRO2',
        atoms='C:4 H:9 O:3',
        thermo=(NASA([10.00, 461.39],
                     [ 3.53964713E+00,  3.88723795E-02,  9.57420148E-05,
                      -2.80380499E-07,  2.09647462E-10, -3.32277485E+04,
                       1.18803618E+01]),
                NASA([461.39, 3000.00],
                     [ 3.47201723E+00,  6.00510247E-02, -4.00567321E-05,
                       1.25663813E-08, -1.49496682E-12, -3.34406952E+04,
                       9.77903975E+00])))

species(name='disub_epoxy',
        atoms='C:4 H:8 O:2',
        thermo=(NASA([10.00, 549.41],
                     [ 3.89863211E+00,  5.97532637E-03,  1.66685676E-04,
                      -3.10743768E-07,  1.78330192E-10, -3.51338649E+04,
                       1.13847308E+01]),
                NASA([549.41, 3000.00],
                     [-6.40277648E-01,  6.05960003E-02, -4.13427220E-05,
                       1.31555461E-08, -1.57685017E-12, -3.49607480E+04,
                       2.76005436E+01])))

species(name='HO2',
        atoms='H:1 O:2',
        thermo=(NASA([10.00, 891.11],
                     [ 4.02887004E+00, -1.75769289E-03,  1.08726004E-05,
                      -1.13812972E-08,  3.90113097E-12,  4.95165001E+02,
                       4.69302008E+00]),
                NASA([891.11, 3000.00],
                     [ 3.06571044E+00,  4.28505005E-03, -2.19325920E-06,
                       5.58882699E-10, -5.61246669E-14,  5.98557610E+02,
                       8.84564156E+00])))

#-------------------------------------------------------------------------------
# Reaction data
#-------------------------------------------------------------------------------

# Reaction 1
chebyshev_reaction('bQOOHg (+ M) <=> bRO2 (+ M)',
                   Tmin=180.0, Tmax=1500.0,
                   Pmin=(0.01, 'atm'), Pmax=(98.692, 'atm'),
                   coeffs=[[ 2.24400e+00,  8.39100e-01, -2.27700e-02, -5.90300e-03,  1.38700e-03,  1.13800e-03,  1.71900e-05, -1.24500e-04],
                           [-1.79600e+00,  1.30500e+00, -1.66500e-03, -9.22500e-03,  2.56600e-03,  1.49600e-03,  7.03000e-05, -1.76000e-04],
                           [-2.73000e+00,  5.39400e-01,  4.66400e-02,  6.87000e-03,  8.67500e-04,  1.11200e-04,  2.84800e-05, -1.43600e-05],
                           [-1.67600e+00, -4.06100e-02,  2.18100e-02,  2.33100e-02,  1.81000e-03, -1.10800e-03, -1.43700e-04,  1.05600e-04],
                           [-9.28100e-01, -2.13700e-01, -3.42100e-02,  1.79300e-02,  5.31500e-03, -7.58800e-04, -4.09000e-04,  9.16300e-05],
                           [-3.99500e-01, -1.28100e-01, -5.20700e-02, -2.91700e-03,  5.17900e-03,  9.81100e-04, -3.08900e-04, -4.50500e-05],
                           [-1.96600e-01, -8.40000e-03, -2.55700e-02, -1.50300e-02,  1.19900e-04,  1.74900e-03,  2.49300e-04, -9.88500e-05],
                           [-7.21500e-02,  3.49600e-02,  7.53000e-03, -9.86200e-03, -3.77400e-03,  4.25800e-04,  5.46300e-04,  4.03300e-05],
                           [-4.10000e-02,  1.45900e-02,  1.71500e-02,  1.90500e-03, -2.61600e-03, -1.17800e-03,  1.03800e-04,  1.58600e-04],
                           [-4.73800e-02, -1.66900e-02,  4.97600e-03,  7.05400e-03,  1.09400e-03, -1.14600e-03, -5.24500e-04,  4.86000e-05]])

# Reaction 2
chebyshev_reaction('bQOOHa (+ M) <=> bRO2 (+ M)',
                   Tmin=180.0, Tmax=1500.0,
                   Pmin=(0.01, 'atm'), Pmax=(98.692, 'atm'),
                   coeffs=[[-4.59600e+00,  2.45700e+00, -2.16800e-01, -8.46100e-03,  2.98300e-02, -5.99900e-03, -5.34700e-03,  1.49800e-03],
                           [-5.94200e-02,  5.25200e-01,  5.02100e-01,  4.15400e-02, -4.51600e-02,  1.15200e-03,  4.03500e-03, -1.90300e-03],
                           [-2.18600e+00, -6.88200e-02, -4.03300e-02,  4.07900e-02,  1.43400e-02, -9.60600e-04, -1.83800e-04,  3.74800e-05],
                           [-1.09500e+00, -1.95200e-01, -1.65100e-01, -1.93600e-02,  1.51200e-02,  5.95600e-03,  1.87900e-04, -2.09400e-04],
                           [-5.76500e-01, -5.25300e-02, -7.87800e-02, -2.23300e-02,  1.39700e-03,  2.27700e-03,  4.32800e-04,  5.18900e-05],
                           [-3.75100e-01,  6.78500e-02,  8.46400e-03, -5.04500e-03, -2.23900e-03, -5.40700e-04, -3.16000e-04, -6.23900e-05],
                           [-2.52700e-01,  5.13800e-02,  2.92600e-02,  2.10400e-03, -1.58200e-03, -2.51200e-04,  2.62000e-05, -8.88600e-05],
                           [-1.53900e-01, -5.47300e-03,  1.03100e-02, -8.89300e-04, -1.73500e-03,  3.16900e-04,  6.22100e-04,  1.19100e-04],
                           [-6.96400e-02, -3.37200e-02, -4.37200e-03, -3.28100e-03, -1.95200e-03, -7.35900e-05,  4.97600e-04,  2.21200e-04],
                           [-7.73900e-03, -2.77900e-02, -6.13400e-03, -8.31400e-04, -1.13900e-03, -5.44100e-04, -4.14600e-06,  7.78500e-05]])

# Reaction 3
chebyshev_reaction('bQOOH[O] (+ M) <=> bRO2 (+ M)',
                   Tmin=180.0, Tmax=1500.0,
                   Pmin=(0.01, 'atm'), Pmax=(98.692, 'atm'),
                   coeffs=[[ 5.01500e+00,  2.02700e+00, -2.48300e-02, -1.01500e-02, -3.15700e-03, -6.08900e-04, -6.36500e-05,  2.31200e-06],
                           [-5.90700e+00,  1.43000e-01,  9.97100e-03,  5.90000e-03,  2.30400e-03,  1.04100e-03,  4.82500e-04,  1.87900e-04],
                           [-2.81300e+00,  5.83700e-02, -2.66900e-02, -1.09200e-02, -3.17200e-03, -4.01700e-04,  9.89700e-05,  8.07900e-05],
                           [-1.34900e+00,  5.89500e-02, -6.30300e-03, -2.82300e-03, -6.83200e-04,  9.62900e-05,  1.54600e-04,  6.17100e-05],
                           [-7.36500e-01,  2.79100e-02, -3.99200e-03, -2.16600e-03, -4.14900e-04,  1.69400e-04,  1.88800e-04,  8.65700e-05],
                           [-3.86000e-01, -7.87600e-04, -3.98100e-03, -2.27900e-03, -5.77500e-04,  1.39500e-05,  9.44700e-05,  4.42700e-05],
                           [-2.05900e-01, -1.50000e-02, -1.42500e-03, -8.63300e-04, -2.35800e-04,  1.32800e-05,  5.60600e-05,  2.46800e-05],
                           [-1.34300e-01, -2.34700e-02, -1.96600e-03, -4.52000e-04, -1.07500e-04,  1.40100e-05,  3.86600e-05,  2.03500e-05],
                           [-7.87300e-02, -2.30500e-02, -2.67500e-03, -2.54300e-04, -4.70900e-05,  4.53800e-06,  2.17900e-05,  1.41400e-05],
                           [-2.74400e-03, -1.57700e-02, -2.36800e-03,  7.96400e-05,  3.50700e-05, -3.10100e-05, -1.99900e-05, -4.68200e-06]])

# Reaction 4
chebyshev_reaction('O2 + bR (+ M) <=> bRO2 (+ M)',
                   Tmin=180.0, Tmax=1500.0,
                   Pmin=(0.01, 'atm'), Pmax=(98.692, 'atm'),
                   coeffs=[[ 1.27000e+01,  5.35600e-01, -4.75000e-02,  3.66700e-03, -7.47700e-04,  1.19100e-04, -1.51700e-05,  9.58900e-07],
                           [-1.77400e+00,  8.82100e-01, -4.51300e-02, -2.42600e-03,  3.25800e-04, -5.66000e-05, -2.29000e-06,  3.64200e-06],
                           [-1.25100e+00,  5.14800e-01,  2.16900e-02, -6.79900e-03, -1.34600e-04,  1.23600e-04, -2.35800e-05, -9.06000e-07],
                           [-8.55900e-01,  2.07300e-01,  4.31300e-02, -6.03100e-04, -1.11200e-03,  2.63100e-05,  2.78700e-05, -7.00600e-06],
                           [-5.36200e-01,  3.64800e-02,  2.96100e-02,  4.87200e-03, -4.22300e-04, -2.21900e-04,  1.79300e-05,  5.15100e-06],
                           [-3.16300e-01, -3.09800e-02,  1.05000e-02,  4.84000e-03,  6.72700e-04, -1.53200e-04, -3.94300e-05,  5.02300e-06],
                           [-1.75500e-01, -4.62700e-02, -8.73300e-04,  2.22700e-03,  8.93900e-04,  7.49100e-05, -3.65900e-05, -7.63400e-06],
                           [-8.91500e-02, -4.11500e-02, -5.20600e-03,  2.06100e-04,  4.72000e-04,  1.59700e-04,  1.10100e-05, -8.37200e-06],
                           [-3.82400e-02, -2.99400e-02, -6.12600e-03, -6.34200e-04,  7.56600e-05,  9.35700e-05,  3.41500e-05,  2.23100e-06],
                           [-1.00600e-02, -1.81800e-02, -5.72200e-03, -8.74100e-04, -8.03300e-05,  1.87600e-05,  2.19400e-05,  8.01700e-06]])
#  bRO2(+M) <=> bQOOHg(+M)                             1.000e+00 0.000     0.000
#      TCHEB/ 180.000   1500.000 /
#      PCHEB/ 0.010     98.692   /
#      CHEB/ 10 8/
#      CHEB/ -9.585e+00   8.391e-01    -2.277e-02   -5.903e-03   1.387e-03   /
#      CHEB/ 1.138e-03    1.719e-05    -1.245e-04   8.640e+00    1.305e+00   /
#      CHEB/ -1.665e-03   -9.225e-03   2.566e-03    1.496e-03    7.030e-05   /
#      CHEB/ -1.760e-04   -2.584e+00   5.394e-01    4.664e-02    6.870e-03   /
#      CHEB/ 8.675e-04    1.112e-04    2.848e-05    -1.436e-05   -1.638e+00  /
#      CHEB/ -4.061e-02   2.181e-02    2.331e-02    1.810e-03    -1.108e-03  /
#      CHEB/ -1.437e-04   1.056e-04    -9.223e-01   -2.137e-01   -3.421e-02  /
#      CHEB/ 1.793e-02    5.315e-03    -7.588e-04   -4.090e-04   9.163e-05   /
#      CHEB/ -3.997e-01   -1.281e-01   -5.207e-02   -2.917e-03   5.179e-03   /
#      CHEB/ 9.811e-04    -3.089e-04   -4.505e-05   -1.972e-01   -8.400e-03  /
#      CHEB/ -2.557e-02   -1.503e-02   1.199e-04    1.749e-03    2.493e-04   /
#      CHEB/ -9.885e-05   -7.260e-02   3.496e-02    7.530e-03    -9.862e-03  /
#      CHEB/ -3.774e-03   4.258e-04    5.463e-04    4.033e-05    -4.132e-02  /
#      CHEB/ 1.459e-02    1.715e-02    1.905e-03    -2.616e-03   -1.178e-03  /
#      CHEB/ 1.038e-04    1.586e-04    -4.756e-02   -1.669e-02   4.976e-03   /
#      CHEB/ 7.054e-03    1.094e-03    -1.146e-03   -5.245e-04   4.860e-05   /

# Reaction 5
chebyshev_reaction('bQOOHa (+ M) <=> bQOOHg (+ M)',
                   Tmin=180.0, Tmax=1500.0,
                   Pmin=(0.01, 'atm'), Pmax=(98.692, 'atm'),
                   coeffs=[[-1.50200e+01,  2.11900e+00, -6.61800e-02, -5.70800e-02,  5.02600e-03, -1.53200e-03, -2.92300e-03,  5.54800e-04],
                           [ 1.87100e+00,  1.50500e+00,  4.77500e-01,  1.06000e-01, -2.67100e-02, -7.58100e-03,  1.55900e-03, -5.81800e-04],
                           [-2.82400e+00, -1.84400e-01, -2.02800e-01,  3.82800e-02,  4.43200e-02,  9.42200e-03, -1.53800e-03, -1.33600e-03],
                           [-1.83200e+00, -4.63400e-01, -1.87900e-01, -1.88100e-02,  1.19400e-02,  7.34900e-03,  1.42300e-03, -1.32900e-04],
                           [-8.83100e-01, -1.48400e-01, -5.59800e-02, -1.54200e-02, -8.08100e-03, -1.20600e-03,  9.74500e-04,  4.16100e-04],
                           [-3.38700e-01,  5.32700e-02, -1.52800e-02, -8.51800e-03, -3.31600e-03, -2.01200e-03, -1.73200e-04,  3.43400e-04],
                           [-1.58100e-01,  1.11000e-01, -3.07900e-03, -1.32600e-02,  3.49400e-04,  1.82400e-03,  1.46900e-04, -2.46300e-04],
                           [-7.64700e-02,  5.28500e-02,  9.70300e-03, -4.74800e-03, -8.85900e-04,  9.24300e-04,  4.73200e-04,  2.17400e-06],
                           [-5.01100e-02,  7.76100e-04,  1.68100e-02,  3.75700e-03, -2.12700e-03, -1.10700e-03,  2.04000e-04,  2.40100e-04],
                           [-3.33900e-02, -2.10000e-02,  7.64400e-03,  6.21200e-03, -1.67500e-04, -1.13100e-03, -3.81800e-04,  4.52700e-05]])

# Reaction 6
chebyshev_reaction('bQOOH[O] (+ M) <=> bQOOHg (+ M)',
                   Tmin=180.0, Tmax=1500.0,
                   Pmin=(0.01, 'atm'), Pmax=(98.692, 'atm'),
                   coeffs=[[-5.42900e+00,  1.20800e+00,  8.55700e-02,  2.75400e-02, -6.64900e-03, -9.50200e-03, -3.75800e-03, -1.18700e-04],
                           [-4.30300e+00,  1.28100e+00, -7.26900e-02,  2.43700e-03,  2.51400e-02,  1.09700e-02,  2.21600e-04, -1.90600e-03],
                           [-3.34200e+00,  3.81700e-01, -4.30800e-02, -4.05000e-02, -8.11600e-03,  4.70200e-03,  4.06400e-03,  1.28800e-03],
                           [-1.97200e+00, -1.25600e-01, -9.81000e-03,  6.70900e-04, -6.80900e-03, -1.09500e-03,  1.33000e-03,  9.71100e-04],
                           [-1.02800e+00, -1.93400e-01, -3.83300e-02,  1.41500e-02,  1.09800e-03, -3.00400e-03, -8.32800e-04,  2.75300e-04],
                           [-3.97300e-01, -7.76900e-02, -5.21700e-02, -6.08000e-04,  5.91600e-03, -8.91100e-05, -1.21100e-03, -4.10300e-04],
                           [-1.52900e-01,  4.08600e-02, -1.76200e-02, -1.11700e-02,  1.45900e-03,  1.57000e-03, -1.71400e-04, -3.51900e-04],
                           [-8.41500e-02,  5.18500e-02,  1.15400e-02, -6.93300e-03, -2.24400e-03,  1.05200e-03,  6.06900e-04, -1.10600e-04],
                           [-6.62900e-02,  1.57600e-02,  1.91600e-02,  3.44900e-03, -1.76100e-03, -6.73900e-04,  3.14500e-04,  1.85800e-04],
                           [-2.08200e-02, -1.39300e-02,  8.21500e-03,  7.25400e-03,  9.97500e-04, -9.53100e-04, -3.06400e-04,  1.65000e-04]])

# Reaction 7
chebyshev_reaction('O2 + bR (+ M) <=> bQOOHg (+ M)',
                   Tmin=180.0, Tmax=1500.0,
                   Pmin=(0.01, 'atm'), Pmax=(98.692, 'atm'),
                   coeffs=[[ 5.28800e+00,  7.24000e-01, -3.89300e-01, -5.82500e-02,  4.92900e-02, -1.76600e-03, -7.91700e-03,  2.35500e-03],
                           [-2.44000e+00,  1.54600e+00,  3.50900e-01, -4.34900e-02, -6.42900e-02,  1.65600e-02,  9.60300e-03, -5.16300e-03],
                           [-2.06600e+00,  3.03000e-01,  1.94200e-01,  7.09400e-02, -2.04200e-02, -1.49200e-02,  3.84800e-03,  2.95200e-03],
                           [-1.33100e+00, -1.81500e-01,  1.73100e-02,  5.77700e-02,  1.42700e-02, -8.64400e-03, -3.76400e-03,  1.51200e-03],
                           [-6.22300e-01, -1.98000e-01, -6.85100e-02,  1.04800e-02,  1.75600e-02,  1.98700e-03, -2.91900e-03, -8.30100e-04],
                           [-2.04500e-01, -6.08800e-02, -6.14400e-02, -2.09300e-02,  6.16600e-03,  5.28900e-03,  7.03500e-05, -9.69700e-04],
                           [-2.82900e-02,  3.62200e-02, -1.39800e-02, -2.24100e-02, -4.59000e-03,  2.70300e-03,  1.59900e-03, -1.22800e-04],
                           [ 1.54900e-03,  5.48400e-02,  2.30300e-02, -8.22600e-03, -7.34000e-03, -5.52100e-04,  1.11600e-03,  3.76200e-04],
                           [-7.49500e-03,  2.01700e-02,  2.84800e-02,  6.53900e-03, -3.73300e-03, -2.22100e-03,  4.53300e-05,  3.65500e-04],
                           [-1.57700e-02, -1.69700e-02,  1.16400e-02,  1.08200e-02,  1.29400e-03, -1.62700e-03, -6.84600e-04,  8.13300e-05]])
#  bRO2(+M) <=> bQOOHa(+M)                             1.000e+00 0.000     0.000
#      TCHEB/ 180.000   1500.000 /
#      PCHEB/ 0.010     98.692   /
#      CHEB/ 10 8/
#      CHEB/ -1.339e+01   2.457e+00    -2.168e-01   -8.461e-03   2.983e-02   /
#      CHEB/ -5.999e-03   -5.347e-03   1.498e-03    7.759e+00    5.252e-01   /
#      CHEB/ 5.021e-01    4.154e-02    -4.516e-02   1.152e-03    4.035e-03   /
#      CHEB/ -1.903e-03   -2.131e+00   -6.882e-02   -4.033e-02   4.079e-02   /
#      CHEB/ 1.434e-02    -9.606e-04   -1.838e-04   3.748e-05    -1.094e+00  /
#      CHEB/ -1.952e-01   -1.651e-01   -1.936e-02   1.512e-02    5.956e-03   /
#      CHEB/ 1.879e-04    -2.094e-04   -5.813e-01   -5.253e-02   -7.878e-02  /
#      CHEB/ -2.233e-02   1.397e-03    2.277e-03    4.328e-04    5.189e-05   /
#      CHEB/ -3.778e-01   6.785e-02    8.464e-03    -5.045e-03   -2.239e-03  /
#      CHEB/ -5.407e-04   -3.160e-04   -6.239e-05   -2.541e-01   5.138e-02   /
#      CHEB/ 2.926e-02    2.104e-03    -1.582e-03   -2.512e-04   2.620e-05   /
#      CHEB/ -8.886e-05   -1.546e-01   -5.473e-03   1.031e-02    -8.893e-04  /
#      CHEB/ -1.735e-03   3.169e-04    6.221e-04    1.191e-04    -6.999e-02  /
#      CHEB/ -3.372e-02   -4.372e-03   -3.281e-03   -1.952e-03   -7.359e-05  /
#      CHEB/ 4.976e-04    2.212e-04    -7.858e-03   -2.779e-02   -6.134e-03  /
#      CHEB/ -8.314e-04   -1.139e-03   -5.441e-04   -4.146e-06   7.785e-05   /
#  bQOOHg(+M) <=> bQOOHa(+M)                           1.000e+00 0.000     0.000
#      TCHEB/ 180.000   1500.000 /
#      PCHEB/ 0.010     98.692   /
#      CHEB/ 10 8/
#      CHEB/ -1.198e+01   2.119e+00    -6.618e-02   -5.708e-02   5.026e-03   /
#      CHEB/ -1.532e-03   -2.923e-03   5.548e-04    -7.463e-01   1.505e+00   /
#      CHEB/ 4.775e-01    1.060e-01    -2.671e-02   -7.581e-03   1.559e-03   /
#      CHEB/ -5.818e-04   -2.915e+00   -1.844e-01   -2.028e-01   3.828e-02   /
#      CHEB/ 4.432e-02    9.422e-03    -1.538e-03   -1.336e-03   -1.867e+00  /
#      CHEB/ -4.634e-01   -1.879e-01   -1.881e-02   1.194e-02    7.349e-03   /
#      CHEB/ 1.423e-03    -1.329e-04   -8.937e-01   -1.484e-01   -5.598e-02  /
#      CHEB/ -1.542e-02   -8.081e-03   -1.206e-03   9.745e-04    4.161e-04   /
#      CHEB/ -3.413e-01   5.327e-02    -1.528e-02   -8.518e-03   -3.316e-03  /
#      CHEB/ -2.012e-03   -1.732e-04   3.434e-04    -1.588e-01   1.110e-01   /
#      CHEB/ -3.079e-03   -1.326e-02   3.494e-04    1.824e-03    1.469e-04   /
#      CHEB/ -2.463e-04   -7.674e-02   5.285e-02    9.703e-03    -4.748e-03  /
#      CHEB/ -8.859e-04   9.243e-04    4.732e-04    2.174e-06    -5.014e-02  /
#      CHEB/ 7.761e-04    1.681e-02    3.757e-03    -2.127e-03   -1.107e-03  /
#      CHEB/ 2.040e-04    2.401e-04    -3.332e-02   -2.100e-02   7.644e-03   /
#      CHEB/ 6.212e-03    -1.675e-04   -1.131e-03   -3.818e-04   4.527e-05   /

# Reaction 8
chebyshev_reaction('bQOOH[O] (+ M) <=> bQOOHa (+ M)',
                   Tmin=180.0, Tmax=1500.0,
                   Pmin=(0.01, 'atm'), Pmax=(98.692, 'atm'),
                   coeffs=[[-9.63500e+00,  3.00800e+00, -4.01100e-02,  5.41500e-03,  2.08900e-02, -9.86800e-03, -8.80600e-03, -4.96400e-04],
                           [-4.78800e+00,  3.06300e-01,  4.37000e-01,  6.62500e-02, -2.82000e-02,  6.21300e-03,  6.20800e-03, -1.66700e-03],
                           [-2.81400e+00, -4.28100e-01, -2.22900e-01, -1.76300e-04,  9.61300e-03, -7.13000e-04,  2.45800e-03,  2.60000e-03],
                           [-1.43400e+00, -2.03800e-01, -2.04700e-01, -3.86900e-02,  8.36900e-03,  4.06300e-03, -1.28300e-04,  2.26200e-04],
                           [-7.47500e-01,  6.71500e-02, -5.17400e-02, -2.36200e-02, -1.06100e-03,  1.83700e-03, -4.06300e-04, -7.86400e-04],
                           [-3.82900e-01,  1.32200e-01,  2.61400e-02, -3.33600e-03, -2.56600e-03, -6.81600e-05, -2.87300e-04, -5.16600e-04],
                           [-2.23300e-01,  5.68100e-02,  3.09500e-02,  4.06000e-03, -1.04600e-03, -6.11900e-05,  3.20300e-04,  4.82800e-05],
                           [-1.47900e-01, -1.75300e-02,  7.24800e-03,  1.57600e-03, -4.49700e-04,  3.48400e-04,  6.87100e-04,  3.14700e-04],
                           [-8.34000e-02, -3.84900e-02, -5.24400e-03, -1.10100e-03, -7.66100e-04, -4.12900e-05,  3.84200e-04,  2.69400e-04],
                           [ 5.26200e-03, -2.45500e-02, -5.12100e-03,  4.23400e-05, -7.90000e-04, -5.28600e-04, -4.30100e-05,  6.96700e-05]])

# Reaction 9
chebyshev_reaction('O2 + bR (+ M) <=> bQOOHa (+ M)',
                   Tmin=180.0, Tmax=1500.0,
                   Pmin=(0.01, 'atm'), Pmax=(98.692, 'atm'),
                   coeffs=[[-3.81700e-01,  3.01300e+00,  4.81800e-01, -2.53400e-02, -9.36900e-02, -4.42600e-02,  3.72800e-04,  1.00900e-02],
                           [-1.61900e+00, -7.57400e-01, -1.51300e-01,  1.21100e-01,  1.01100e-01,  4.23700e-02, -5.26000e-03, -1.39300e-02],
                           [-1.44700e+00, -2.45600e-01, -2.19300e-01,  1.84200e-03,  2.21300e-02,  3.21000e-03,  2.19100e-03,  2.40600e-03],
                           [-9.01700e-01,  4.41800e-02, -8.65700e-02, -4.89700e-02, -7.97100e-03,  1.15100e-03,  1.90000e-03,  1.27700e-03],
                           [-4.43100e-01,  1.17400e-01,  1.53300e-02, -2.49500e-02, -1.00900e-02, -5.25200e-04,  5.09600e-05, -3.05700e-04],
                           [-2.00000e-01,  6.88400e-02,  4.14000e-02,  3.12800e-03, -3.20900e-03, -1.24000e-03, -4.30700e-04, -2.39400e-04],
                           [-1.09600e-01, -9.46800e-03,  2.61100e-02,  1.15200e-02,  2.00200e-03, -2.12900e-04, -1.87600e-04, -1.16200e-04],
                           [-6.27400e-02, -4.35100e-02,  7.11400e-04,  5.06200e-03,  2.02500e-03,  7.45900e-04,  3.57100e-04,  8.24800e-05],
                           [-3.60800e-02, -3.85600e-02, -8.43600e-03, -9.20000e-05,  5.04600e-04,  2.85600e-04,  1.52000e-04,  9.06900e-05],
                           [-4.61100e-03, -1.73700e-02, -8.02300e-03, -2.15600e-03, -1.03400e-03, -6.65300e-05,  1.99900e-04,  9.13000e-05]])
#  bRO2(+M) <=> bQOOH[O](+M)                           1.000e+00 0.000     0.000
#      TCHEB/ 180.000   1500.000 /
#      PCHEB/ 0.010     98.692   /
#      CHEB/ 10 8/
#      CHEB/ -9.449e+00   2.027e+00    -2.483e-02   -1.015e-02   -3.157e-03  /
#      CHEB/ -6.089e-04   -6.365e-05   2.312e-06    5.925e+00    1.430e-01   /
#      CHEB/ 9.971e-03    5.900e-03    2.304e-03    1.041e-03    4.825e-04   /
#      CHEB/ 1.879e-04    -2.819e+00   5.837e-02    -2.669e-02   -1.092e-02  /
#      CHEB/ -3.172e-03   -4.017e-04   9.897e-05    8.079e-05    -1.370e+00  /
#      CHEB/ 5.895e-02    -6.303e-03   -2.823e-03   -6.832e-04   9.629e-05   /
#      CHEB/ 1.546e-04    6.171e-05    -7.472e-01   2.791e-02    -3.992e-03  /
#      CHEB/ -2.166e-03   -4.149e-04   1.694e-04    1.888e-04    8.657e-05   /
#      CHEB/ -3.899e-01   -7.876e-04   -3.981e-03   -2.279e-03   -5.775e-04  /
#      CHEB/ 1.395e-05    9.447e-05    4.427e-05    -2.074e-01   -1.500e-02  /
#      CHEB/ -1.425e-03   -8.633e-04   -2.358e-04   1.328e-05    5.606e-05   /
#      CHEB/ 2.468e-05    -1.349e-01   -2.347e-02   -1.966e-03   -4.520e-04  /
#      CHEB/ -1.075e-04   1.401e-05    3.866e-05    2.035e-05    -7.891e-02  /
#      CHEB/ -2.305e-02   -2.675e-03   -2.543e-04   -4.709e-05   4.538e-06   /
#      CHEB/ 2.179e-05    1.414e-05    -2.738e-03   -1.577e-02   -2.368e-03  /
#      CHEB/ 7.964e-05    3.507e-05    -3.101e-05   -1.999e-05   -4.682e-06  /
#  bQOOHg(+M) <=> bQOOH[O](+M)                         1.000e+00 0.000     0.000
#      TCHEB/ 180.000   1500.000 /
#      PCHEB/ 0.010     98.692   /
#      CHEB/ 10 8/
#      CHEB/ -8.064e+00   1.208e+00    8.557e-02    2.754e-02    -6.649e-03  /
#      CHEB/ -9.502e-03   -3.758e-03   -1.187e-04   -2.908e+00   1.281e+00   /
#      CHEB/ -7.269e-02   2.437e-03    2.514e-02    1.097e-02    2.216e-04   /
#      CHEB/ -1.906e-03   -3.494e+00   3.817e-01    -4.308e-02   -4.050e-02  /
#      CHEB/ -8.116e-03   4.702e-03    4.064e-03    1.288e-03    -2.030e+00  /