units(length='cm', time='s', quantity='mol', act_energy='kcal/mol')

ideal_gas(name='gas',
          elements="H D T C Ci O Oi N Ne Ar He Si S F Cl Br I X",
          species="""aOOHbalkene      OH               ibutanal
                     aR               performic_acid   disub_c4ether
                     aQOOHb           H                aadduct
                     trisub_epoxy     ibutenol         aQOOH[O]
                     ipropyl          aRO2             O2
                     formic_acid      propene          aQOOHg
                     ibut_peroxyacid  HO2              CH3""",
          reactions='all',
          initial_state=state(temperature=300.0, pressure=OneAtm))

#-------------------------------------------------------------------------------
# Element data
#-------------------------------------------------------------------------------

element(symbol='Ci', atomic_mass=13.003)
element(symbol='D', atomic_mass=2.014)
element(symbol='Oi', atomic_mass=18.0)
element(symbol='T', atomic_mass=3.016)
element(symbol='X', atomic_mass=195.083)
#-------------------------------------------------------------------------------
# Species data
#-------------------------------------------------------------------------------

species(name='aOOHbalkene',
        atoms='C:3 H:6 O:3',
        thermo=(NASA([10.00, 497.41],
                     [ 3.76691735E+00,  1.51417956E-02,  1.85499431E-04,
                      -4.61303214E-07,  3.27678941E-10, -3.02187471E+04,
                       1.09903968E+01]),
                NASA([497.41, 3000.00],
                     [ 6.20882781E+00,  4.08866173E-02, -2.89934946E-05,
                       9.60428979E-09, -1.19355432E-12, -3.10230764E+04,
                      -4.72842811E+00])))

species(name='OH',
        atoms='H:1 O:1',
        thermo=(NASA([10.00, 984.14],
                     [ 3.49686242E+00,  1.83973160E-04, -9.97634499E-07,
                       1.56942783E-09, -6.10128175E-13,  3.41673934E+03,
                       1.48093120E+00]),
                NASA([984.14, 3000.00],
                     [ 3.45221464E+00, -2.95124034E-04,  7.39418622E-07,
                      -2.89309866E-10,  3.53041498E-14,  3.45751599E+03,
                       1.85813897E+00])))

species(name='ibutanal',
        atoms='C:4 H:8 O:1',
        thermo=(NASA([10.00, 683.88],
                     [ 3.57157346E+00,  3.36936906E-02, -1.78475021E-05,
                       1.31946716E-08, -7.58008388E-12, -2.62149563E+04,
                       1.05595084E+01]),
                NASA([683.88, 3000.00],
                     [ 1.29043622E+00,  4.14804229E-02, -2.27411206E-05,
                       6.08619500E-09, -6.38995128E-13, -2.57730371E+04,
                       2.16477430E+01])))

species(name='aR',
        atoms='C:4 H:9 O:1',
        thermo=(NASA([10.00, 455.22],
                     [ 3.59625500E+00,  3.38947981E-02,  7.37257079E-06,
                      -3.99275335E-08,  2.49019944E-11, -1.46974579E+04,
                       1.18269265E+01]),
                NASA([455.22, 3000.00],
                     [ 2.49586309E+00,  4.35639890E-02, -2.44887770E-05,
                       6.73363769E-09, -7.23862433E-13, -1.45972748E+04,
                       1.62696907E+01])))

species(name='performic_acid',
        atoms='C:1 H:2 O:3',
        thermo=(NASA([10.00, 590.95],
                     [ 3.92633851E+00,  4.24517168E-03,  6.71106764E-05,
                      -1.36545385E-07,  8.03337864E-11, -3.63028176E+04,
                       8.06485813E+00]),
                NASA([590.95, 3000.00],
                     [ 4.39992934E+00,  1.85411415E-02, -1.36005501E-05,
                       4.62292431E-09, -5.88463603E-13, -3.66643888E+04,
                       3.44353230E+00])))

species(name='disub_c4ether',
        atoms='C:4 H:8 O:2',
        thermo=(NASA([10.00, 413.50],
                     [ 3.78241323E+00,  1.89501763E-02,  8.65302396E-05,
                      -1.80580575E-07,  1.13656264E-10, -3.80220160E+04,
                       1.09982450E+01]),
                NASA([413.50, 3000.00],
                     [ 4.29420885E-01,  5.13851903E-02, -3.11292293E-05,
                       9.11498284E-09, -1.03192718E-12, -3.77447216E+04,
                       2.42134976E+01])))

species(name='aQOOHb',
        atoms='C:4 H:9 O:3',
        thermo=(NASA([10.00, 412.78],
                     [ 3.15498836E+00,  8.55068303E-02, -2.35307993E-04,
                       4.71983261E-07, -3.62709267E-10, -2.66849131E+04,
                       1.52522123E+01]),
                NASA([412.78, 3000.00],
                     [ 4.18099845E+00,  5.26168288E-02, -3.23998410E-05,
                       9.59389339E-09, -1.09464519E-12, -2.65741181E+04,
                       1.35782328E+01])))

species(name='H',
        atoms='H:1',
        thermo=(NASA([10.00, 794.01],
                     [ 2.50000000E+00,  1.99051163E-15, -1.19089508E-17,
                       2.10805655E-20, -1.11017699E-23,  2.54725594E+04,
                      -4.61279342E-01]),
                NASA([794.01, 3000.00],
                     [ 2.50000000E+00,  1.52667235E-14, -1.58445285E-17,
                       6.63088600E-21, -9.62111674E-25,  2.54725594E+04,
                      -4.61279342E-01])))

species(name='aadduct',
        atoms='C:4 H:9 O:3',
        thermo=(NASA([10.00, 449.84],
                     [ 3.06901904E+00,  9.20724491E-02, -2.68085092E-04,
                       5.15249897E-07, -3.68046586E-10, -2.86205921E+04,
                       1.46591735E+01]),
                NASA([449.84, 3000.00],
                     [ 4.11210745E+00,  5.16955724E-02, -2.97401041E-05,
                       8.32758939E-09, -9.08861448E-13, -2.83997511E+04,
                       1.39578825E+01])))

species(name='trisub_epoxy',
        atoms='C:4 H:8 O:2',
        thermo=(NASA([10.00, 209.19],
                     [ 3.75295042E+00,  2.37546930E-02,  1.26610110E-04,
                      -4.78364365E-07,  5.79468168E-10, -4.29556858E+04,
                       1.12739684E+01]),
                NASA([209.19, 3000.00],
                     [ 2.64185254E+00,  4.50006531E-02, -2.57361066E-05,
                       7.15266054E-09, -7.72980731E-13, -4.29092002E+04,
                       1.48960343E+01])))

species(name='ibutenol',
        atoms='C:4 H:8 O:1',
        thermo=(NASA([10.00, 135.97],
                     [ 3.95714996E+00,  5.72646980E-03,  4.63611760E-04,
                      -3.04137514E-06,  6.85019471E-09, -2.36761332E+04,
                       8.21931848E+00]),
                NASA([135.97, 3000.00],
                     [ 3.32467612E+00,  3.69033556E-02, -1.89960416E-05,
                       4.73417677E-09, -4.59705291E-13, -2.36705545E+04,
                       9.58133237E+00])))

species(name='aQOOH[O]',
        atoms='C:4 H:9 O:3',
        thermo=(NASA([10.00, 488.36],
                     [ 3.54559533E+00,  3.89536133E-02,  8.47689703E-05,
                      -2.45147486E-07,  1.76157259E-10, -2.48674128E+04,
                       1.34685910E+01]),
                NASA([488.36, 3000.00],
                     [ 3.94214913E+00,  5.71928314E-02, -3.72516212E-05,
                       1.15209013E-08, -1.35808341E-12, -2.51623738E+04,
                       9.21628964E+00])))

species(name='ipropyl',
        atoms='C:3 H:7',
        thermo=(NASA([10.00, 421.76],
                     [ 3.73943775E+00,  3.10070157E-02, -1.51196908E-04,
                       4.35367329E-07, -3.85565052E-10,  9.49213457E+03,
                       7.79448918E+00]),
                NASA([421.76, 3000.00],
                     [-4.74526725E-01,  3.20862468E-02, -1.67340747E-05,
                       4.21365136E-09, -4.13155573E-13,  1.01934458E+04,
                       2.85865912E+01])))

species(name='aRO2',
        atoms='C:4 H:9 O:3',
        thermo=(NASA([10.00, 670.36],
                     [ 3.45405325E+00,  4.74751311E-02,  9.77507759E-06,
                      -6.31019603E-08,  3.75500067E-11, -3.32251523E+04,
                       1.39284976E+01]),
                NASA([670.36, 3000.00],
                     [ 5.04137652E+00,  5.19952978E-02, -3.16472789E-05,
                       9.22798587E-09, -1.03598915E-12, -3.37523449E+04,
                       4.56056770E+00])))

species(name='O2',
        atoms='O:2',
        thermo=(NASA([10.00, 605.96],
                     [ 3.50743498E+00, -4.43860349E-04,  1.45938058E-06,
                       1.61509333E-09, -2.32050052E-12, -9.24756224E+02,
                       4.72183634E+00]),
                NASA([605.96, 3000.00],
                     [ 2.87462882E+00,  2.17840991E-03, -1.18262921E-06,
                       2.86910493E-10, -2.53297146E-14, -8.19517838E+02,
                       7.69331810E+00])))

species(name='formic_acid',
        atoms='C:1 H:2 O:2',
        thermo=(NASA([10.00, 741.38],
                     [ 4.06855785E+00, -4.74562133E-03,  4.71797900E-05,
                      -6.07490052E-08,  2.51286794E-11, -4.66880837E+04,
                       6.53681035E+00]),
                NASA([741.38, 3000.00],
                     [ 1.13645847E+00,  1.74953124E-02, -1.08112403E-05,
                       3.08075326E-09, -3.34892658E-13, -4.64297918E+04,
                       1.86149484E+01])))

species(name='propene',
        atoms='C:3 H:6',
        thermo=(NASA([10.00, 519.53],
                     [ 3.98723879E+00,  4.72040503E-04,  6.51776229E-05,
                      -9.89891002E-08,  4.91141123E-11,  3.14837256E+03,
                       6.98071210E+00]),
                NASA([519.53, 3000.00],
                     [ 3.79893331E-01,  2.82457690E-02, -1.50108430E-05,
                       3.90894069E-09, -4.00521928E-13,  3.52319991E+03,
                       2.20218922E+01])))

species(name='aQOOHg',
        atoms='C:4 H:9 O:3',
        thermo=(NASA([10.00, 455.48],
                     [ 3.62522127E+00,  2.83222320E-02,  2.08527447E-04,
                      -5.67427418E-07,  4.35169138E-10, -2.64764806E+04,
                       1.26617758E+01]),
                NASA([455.48, 3000.00],
                     [ 5.13914202E+00,  5.96270859E-02, -4.14435328E-05,
                       1.34202375E-08, -1.63474553E-12, -2.70770370E+04,
                       1.46991116E+00])))

species(name='ibut_peroxyacid',
        atoms='C:4 H:8 O:3',
        thermo=(NASA([10.00, 1386.21],
                     [ 3.50995385E+00,  4.78670384E-02, -2.40781384E-05,
                       3.71046938E-09,  3.85442115E-13, -4.75074906E+04,
                       1.22017268E+01]),
                NASA([1386.21, 3000.00],
                     [ 1.24543146E+01,  3.02396862E-02, -1.38577031E-05,
                       3.05328904E-09, -2.63982457E-13, -5.07733739E+04,
                      -3.67061828E+01])))

species(name='HO2',
        atoms='H:1 O:2',
        thermo=(NASA([10.00, 891.11],
                     [ 4.02887004E+00, -1.75769289E-03,  1.08726004E-05,
                      -1.13812972E-08,  3.90113097E-12,  4.95165001E+02,
                       4.69302008E+00]),
                NASA([891.11, 3000.00],
                     [ 3.06571044E+00,  4.28505005E-03, -2.19325920E-06,
                       5.58882699E-10, -5.61246669E-14,  5.98557610E+02,
                       8.84564156E+00])))

species(name='CH3',
        atoms='C:1 H:3',
        thermo=(NASA([10.00, 616.77],
                     [ 3.98929952E+00,  5.45150461E-04,  9.01320092E-06,
                      -1.08320497E-08,  4.38985879E-12,  1.65859883E+04,
                       2.22446886E-01]),
                NASA([616.77, 3000.00],
                     [ 3.35928237E+00,  4.63117126E-03, -9.24365433E-07,
                      -9.02514624E-11,  3.56905106E-14,  1.66637014E+04,
                       2.95743732E+00])))

#-------------------------------------------------------------------------------
# Reaction data
#-------------------------------------------------------------------------------

# Reaction 1
chebyshev_reaction('aQOOH[O] (+ M) <=> aQOOHb (+ M)',
                   Tmin=180.0, Tmax=1500.0,
                   Pmin=(0.01, 'atm'), Pmax=(98.692, 'atm'),
                   coeffs=[[ 2.27200e+00,  1.73300e+00, -4.93000e-01, -2.69900e-02,  1.72200e-03,  3.09100e-05,  9.39700e-04,  3.32500e-04],
                           [ 2.03100e+00,  1.87200e+00,  1.31300e-01, -9.15500e-02, -7.02300e-03,  6.44700e-03,  3.23700e-04, -4.79700e-04],
                           [ 2.38500e-01,  1.65000e-01,  1.11500e-01, -2.81600e-03, -1.75500e-02, -1.45200e-03,  2.47500e-03,  5.56300e-04],
                           [ 7.57200e-02, -7.79400e-02,  5.92100e-02,  2.23000e-02, -7.91700e-03, -6.11200e-03, -3.92800e-04,  9.10100e-04],
                           [ 8.47200e-03,  1.15800e-04,  1.87500e-02,  1.73100e-02,  1.44900e-03, -3.36100e-03, -1.37300e-03, -4.05800e-06],
                           [-1.36400e-02,  3.99900e-02,  8.22200e-03,  5.28100e-03,  2.86200e-03, -5.67000e-04, -8.98900e-04, -1.29600e-04],
                           [-1.08300e-02,  2.55600e-02,  4.92800e-03,  1.14800e-03,  1.06200e-03,  3.32200e-04, -3.38300e-04, -1.38000e-04],
                           [-1.19200e-02,  3.95200e-03,  3.83800e-04,  3.56200e-04,  7.72600e-04,  1.34500e-04,  1.00800e-04, -1.69900e-04],
                           [-1.72500e-03, -7.94800e-03,  1.88300e-03, -2.89000e-04,  1.54600e-04,  6.36000e-04, -1.34200e-04, -4.24100e-05],
                           [-2.35600e-03, -6.38700e-03, -3.00100e-03,  3.96200e-04,  3.16700e-04,  4.12900e-05,  2.28000e-04, -4.72000e-05]])

# Reaction 2
chebyshev_reaction('aQOOHg (+ M) <=> aQOOHb (+ M)',
                   Tmin=180.0, Tmax=1500.0,
                   Pmin=(0.01, 'atm'), Pmax=(98.692, 'atm'),
                   coeffs=[[-1.23100e+00,  5.66900e-01, -5.17800e-01, -2.19400e-02,  1.50300e-02, -1.45700e-04, -3.48000e-04,  2.80500e-04],
                           [ 4.87300e+00,  2.22400e+00, -9.91300e-02, -1.04500e-01, -1.64600e-02,  8.52800e-03,  2.15000e-03, -4.68100e-04],
                           [ 1.85700e-01,  4.46200e-01,  1.42300e-01, -1.60000e-02, -1.84900e-02, -4.19700e-03,  1.65200e-03,  8.32700e-04],
                           [-1.97900e-01,  1.14900e-01,  6.90200e-02,  7.16100e-03, -3.58800e-04, -3.82400e-03, -1.60400e-03,  3.63900e-04],
                           [-9.29400e-02,  6.37000e-02,  4.90100e-02,  1.29700e-03, -1.41400e-03,  3.81700e-04, -9.38500e-04, -3.83900e-04],
                           [-4.41600e-02,  3.06300e-02,  3.78400e-02,  4.28500e-03, -4.21700e-03,  2.09600e-04,  2.26500e-04, -2.98200e-04],
                           [-2.18500e-02,  1.21500e-02,  1.49400e-02,  7.63500e-03, -2.15600e-03, -8.45000e-04,  4.18200e-04, -6.58500e-05],
                           [-1.73300e-02,  7.43800e-05,  2.59700e-04,  5.45800e-03,  4.04100e-04, -8.30700e-04,  2.02800e-04,  9.55100e-05],
                           [-7.27200e-03, -5.35000e-03, -3.51100e-03,  1.77700e-03,  1.29600e-03, -3.36900e-04, -4.59300e-05,  1.47800e-04],
                           [-2.81800e-03, -6.46200e-03, -2.87100e-03, -1.53300e-05,  1.03300e-03,  2.77300e-05, -1.63400e-04,  7.53200e-05]])

# Reaction 3
chebyshev_reaction('aRO2 (+ M) <=> aQOOHb (+ M)',
                   Tmin=180.0, Tmax=1500.0,
                   Pmin=(0.01, 'atm'), Pmax=(98.692, 'atm'),
                   coeffs=[[-3.42500e+00,  1.26300e+00, -1.93500e-01, -3.91600e-02,  7.23400e-03,  1.00800e-03,  3.36200e-04,  1.20600e-04],
                           [ 7.78300e+00,  1.77800e+00, -1.88600e-01, -6.95900e-02, -6.55500e-04,  3.98500e-03,  1.03900e-03, -4.78700e-05],
                           [ 1.57000e-01,  6.60100e-01,  1.89600e-02, -1.79700e-02, -1.87700e-02,  1.37000e-03,  1.84200e-03, -1.27600e-05],
                           [ 3.68600e-02,  5.99300e-02,  6.81200e-02,  1.76900e-02, -1.46600e-02, -3.06800e-03,  6.59400e-04,  5.36800e-04],
                           [-1.51100e-02, -7.77400e-02,  5.33500e-02,  1.45500e-02, -3.32300e-03, -3.02700e-03, -8.97000e-04,  4.90400e-04],
                           [-4.44900e-02, -4.64600e-02,  3.42200e-02,  2.46300e-03,  1.62600e-03, -1.35600e-03, -8.55600e-04,  1.05600e-04],
                           [-4.55600e-02, -2.60200e-03,  1.54700e-02, -1.19300e-03,  2.15000e-03, -7.91000e-04, -2.03800e-04, -5.09400e-05],
                           [-3.03400e-02,  1.53900e-02,  1.96800e-04,  2.95500e-04,  1.73000e-03, -5.53000e-04,  4.50500e-05, -8.78300e-05],
                           [-1.46800e-02,  1.55100e-02, -7.92000e-03,  2.02200e-03,  9.39200e-04, -6.88200e-05,  2.81200e-05, -1.22300e-04],
                           [-2.78000e-03,  6.50000e-03, -7.71300e-03,  2.24700e-03,  3.82100e-05,  3.47700e-04, -1.80800e-05, -9.42000e-05]])

# Reaction 4
chebyshev_reaction('aadduct (+ M) <=> aQOOHb (+ M)',
                   Tmin=180.0, Tmax=1500.0,
                   Pmin=(0.01, 'atm'), Pmax=(98.692, 'atm'),
                   coeffs=[[-2.97700e-01,  7.39800e-01, -3.18500e-01, -3.90100e-02,  6.74700e-03, -9.65500e-04, -1.07900e-04,  5.95400e-04],
                           [ 2.89600e+00,  2.41900e+00,  2.20500e-03, -8.63200e-02, -1.48400e-02,  6.54500e-03,  1.72000e-03, -8.70900e-04],
                           [ 6.08500e-02,  6.74800e-01, -5.56300e-04, -4.77200e-03, -8.27800e-03, -1.26300e-03,  9.15600e-04,  4.52000e-04],
                           [ 1.18100e-01,  1.10100e-02,  2.48500e-02,  2.10700e-02, -9.05200e-03, -3.83700e-03,  3.40900e-04,  6.18700e-04],
                           [ 1.34400e-01, -1.14500e-01,  5.17600e-02,  1.93400e-02, -6.53400e-03, -3.44600e-03, -2.76700e-04,  3.44600e-04],
                           [ 6.67800e-02, -7.00500e-02,  4.82100e-02,  5.59700e-03, -1.32600e-03, -1.06400e-03, -7.23600e-04, -3.38500e-05],
                           [ 5.48600e-03, -8.41200e-03,  2.43600e-02, -3.51200e-03,  2.37200e-03,  2.16400e-04, -6.55100e-04, -1.53700e-04],
                           [-2.47900e-02,  2.19600e-02,  3.07500e-04, -3.63100e-03,  3.56600e-03,  3.84800e-07, -3.50300e-04, -5.74900e-05],
                           [-2.38100e-02,  2.54100e-02, -1.23100e-02,  3.30200e-04,  2.44800e-03, -3.71200e-04, -1.08100e-05,  1.88600e-06],
                           [-1.34400e-02,  1.28400e-02, -1.23400e-02,  3.27700e-03,  3.73700e-04, -2.28800e-04,  1.99700e-04, -3.37800e-05]])

# Reaction 5
chebyshev_reaction('O2 + aR (+ M) <=> aQOOHb (+ M)',
                   Tmin=180.0, Tmax=1500.0,
                   Pmin=(0.01, 'atm'), Pmax=(98.692, 'atm'),
                   coeffs=[[ 6.13600e+00,  1.00600e+00, -4.59900e-01, -1.00100e-01,  1.07100e-02,  1.05100e-02,  1.25800e-04, -1.05000e-03],
                           [ 2.35000e-01,  6.35800e-01,  2.18400e-01, -1.29400e-02, -3.92800e-02, -8.27900e-03,  4.18100e-03,  1.98000e-03],
                           [ 2.49100e-01,  8.88900e-02,  6.07500e-02,  2.25100e-02, -1.62700e-03, -5.65800e-03, -1.70600e-03,  5.39400e-04],
                           [ 6.41400e-02,  1.78800e-02,  1.98300e-02,  1.32900e-02,  3.67500e-03, -1.45000e-03, -1.56800e-03, -2.80400e-04],
                           [ 2.07000e-02,  3.19600e-02,  1.93000e-02,  8.10500e-03,  1.66600e-03, -7.46000e-04, -8.90900e-04, -3.13900e-04],
                           [ 5.14600e-03,  2.60500e-02,  1.47300e-02,  5.52400e-03,  1.02700e-03, -3.32700e-04, -4.53200e-04, -2.44200e-04],
                           [ 1.90700e-03,  1.13200e-02,  6.42300e-03,  2.51300e-03,  6.82900e-04,  1.18700e-04, -4.58300e-05, -1.00200e-04],
                           [-6.22100e-03,  7.52500e-04,  5.51600e-04,  4.14900e-04,  3.42300e-04,  2.51400e-04,  1.22300e-04,  9.32200e-06],
                           [-3.26500e-03, -3.32000e-03, -1.60600e-03, -3.19000e-04,  1.71900e-04,  1.96400e-04,  1.03100e-04,  2.96000e-05],
                           [-2.01300e-03, -4.36300e-03, -2.03300e-03, -3.49400e-04,  2.07200e-04,  1.65400e-04,  4.37200e-05, -1.03000e-06]])
#  aQOOHb(+M) <=> aQOOH[O](+M)                         1.000e+00 0.000     0.000
#      TCHEB/ 180.000   1500.000 /
#      PCHEB/ 0.010     98.692   /
#      CHEB/ 10 8/
#      CHEB/ -1.678e+00   1.733e+00    -4.930e-01   -2.699e-02   1.722e-03   /
#      CHEB/ 3.091e-05    9.397e-04    3.325e-04    3.782e+00    1.872e+00   /
#      CHEB/ 1.313e-01    -9.155e-02   -7.023e-03   6.447e-03    3.237e-04   /
#      CHEB/ -4.797e-04   3.164e-01    1.650e-01    1.115e-01    -2.816e-03  /
#      CHEB/ -1.755e-02   -1.452e-03   2.475e-03    5.563e-04    1.217e-01   /
#      CHEB/ -7.794e-02   5.921e-02    2.230e-02    -7.917e-03   -6.112e-03  /
#      CHEB/ -3.928e-04   9.101e-04    2.385e-02    1.158e-04    1.875e-02   /
#      CHEB/ 1.731e-02    1.449e-03    -3.361e-03   -1.373e-03   -4.058e-06  /
#      CHEB/ -8.871e-03   3.999e-02    8.222e-03    5.281e-03    2.862e-03   /
#      CHEB/ -5.670e-04   -8.989e-04   -1.296e-04   -9.014e-03   2.556e-02   /
#      CHEB/ 4.928e-03    1.148e-03    1.062e-03    3.322e-04    -3.383e-04  /
#      CHEB/ -1.380e-04   -1.120e-02   3.952e-03    3.838e-04    3.562e-04   /
#      CHEB/ 7.726e-04    1.345e-04    1.008e-04    -1.699e-04   -1.531e-03  /
#      CHEB/ -7.948e-03   1.883e-03    -2.890e-04   1.546e-04    6.360e-04   /
#      CHEB/ -1.342e-04   -4.241e-05   -2.349e-03   -6.387e-03   -3.001e-03  /
#      CHEB/ 3.962e-04    3.167e-04    4.129e-05    2.280e-04    -4.720e-05  /

# Reaction 6
chebyshev_reaction('aQOOHg (+ M) <=> aQOOH[O] (+ M)',
                   Tmin=180.0, Tmax=1500.0,
                   Pmin=(0.01, 'atm'), Pmax=(98.692, 'atm'),
                   coeffs=[[ 5.73800e-01,  1.48700e+00, -3.70200e-01, -3.52400e-02,  1.38900e-02,  3.57200e-05, -5.50000e-05,  4.20100e-04],
                           [ 4.17500e+00,  1.42500e+00, -6.12300e-02, -2.72000e-02, -1.74000e-02,  5.90600e-03,  1.12200e-03, -9.78300e-04],
                           [-1.29500e-01,  3.28600e-01,  5.89700e-02, -8.42300e-03,  4.85400e-03, -2.65500e-03,  8.50700e-04,  1.02700e-03],
                           [-2.86200e-01,  1.52400e-01,  1.29800e-02, -1.62400e-02, -5.59300e-05, -9.09700e-04, -1.30300e-03,  1.38800e-04],
                           [-8.15200e-02,  9.06600e-02,  5.46400e-02, -1.01300e-02, -5.85600e-03,  2.20300e-03, -6.63200e-04, -6.20900e-04],
                           [-3.03600e-02,  3.92900e-02,  4.16700e-02,  1.15100e-03, -6.57400e-03,  4.46400e-05,  1.12900e-03, -1.29700e-04],
                           [-2.10200e-02,  1.52800e-02,  1.52700e-02,  7.17800e-03, -3.97000e-03, -1.84500e-03,  5.80200e-04,  1.75800e-04],
                           [-1.38300e-02, -2.75400e-03,  4.12300e-03,  5.34800e-03,  2.95600e-04, -1.12100e-03, -2.19200e-04,  1.99000e-04],
                           [-8.96000e-03, -4.90300e-03, -2.57800e-03,  2.89100e-03,  1.24800e-03, -4.28900e-04, -1.33000e-04, -1.92200e-05],
                           [-5.09800e-03, -7.39400e-03, -2.50200e-03,  4.75000e-04,  1.26100e-03,  1.38100e-04, -2.22300e-04,  2.76700e-05]])

# Reaction 7
chebyshev_reaction('aRO2 (+ M) <=> aQOOH[O] (+ M)',
                   Tmin=180.0, Tmax=1500.0,
                   Pmin=(0.01, 'atm'), Pmax=(98.692, 'atm'),
                   coeffs=[[-2.56700e+00,  2.55500e+00, -3.88400e-01, -5.79800e-03,  9.07300e-03, -2.77200e-03,  7.47100e-04,  4.59000e-04],
                           [ 8.56900e+00,  1.03900e+00,  1.55800e-01, -5.24200e-02, -4.46300e-03,  6.16200e-03, -1.47700e-03, -5.59400e-04],
                           [-4.95600e-01,  9.07500e-02,  5.49000e-02,  1.88100e-03, -7.13500e-03,  2.01800e-03,  1.72700e-03, -5.01700e-04],
                           [-1.32100e-01,  4.15700e-03,  1.35500e-02, -5.24600e-04, -4.64600e-03, -1.33100e-03,  8.33700e-04,  6.17500e-04],
                           [-7.46200e-02,  4.69400e-02,  7.37300e-03, -8.45700e-04, -2.41700e-03, -2.06400e-03,  1.69300e-04,  3.56900e-04],
                           [-6.02000e-02,  4.02000e-02,  1.53200e-02, -7.94400e-04, -2.09800e-03, -4.85900e-04, -2.94700e-04,  6.90500e-05],
                           [-3.74200e-02,  1.71400e-02,  1.12500e-02,  2.32800e-03, -1.79500e-03, -2.66100e-04,  2.49100e-05, -7.84900e-05],
                           [-1.76400e-02,  4.97000e-03,  2.85000e-03,  2.10300e-03,  8.28800e-04, -1.05400e-03,  9.38800e-05,  1.26200e-04],
                           [-1.98200e-03, -9.09100e-03,  3.56800e-03,  1.66200e-03, -2.78100e-04,  4.12200e-04, -4.32000e-04, -5.21600e-06],
                           [ 2.46900e-03, -3.80200e-03, -3.16100e-03,  1.34000e-03,  1.12600e-03, -4.82300e-04,  5.45300e-05, -1.61300e-05]])

# Reaction 8
chebyshev_reaction('aadduct (+ M) <=> aQOOH[O] (+ M)',
                   Tmin=180.0, Tmax=1500.0,
                   Pmin=(0.01, 'atm'), Pmax=(98.692, 'atm'),
                   coeffs=[[ 5.20700e-01,  2.36400e+00, -4.65500e-01, -3.15400e-02,  1.61500e-03, -3.48000e-03,  1.47700e-03,  6.13000e-04],
                           [ 3.60700e+00,  1.25600e+00,  2.40100e-01, -3.12400e-02, -2.26700e-03,  4.77400e-03, -2.35500e-03, -6.46200e-04],
                           [-5.35000e-01,  1.42900e-01,  6.78800e-02,  2.20500e-03, -7.07900e-03,  2.52700e-03,  1.70100e-03, -5.40800e-04],
                           [-5.16600e-02, -1.36900e-02,  9.83500e-03, -2.79000e-04, -3.87600e-03, -1.16900e-03,  6.15000e-04,  5.61300e-04],
                           [ 6.80400e-02,  2.36400e-02,  2.33900e-03,  1.39600e-03, -1.51700e-03, -2.61700e-03,  1.53900e-04,  4.29300e-04],
                           [ 5.07600e-02,  2.76000e-02,  1.51300e-02,  1.02500e-03, -2.08800e-03, -7.21800e-04, -3.67400e-04,  1.08200e-04],
                           [ 1.42600e-02,  1.43400e-02,  1.18700e-02,  3.26200e-03, -1.94700e-03, -3.01500e-04, -5.67000e-06, -1.27400e-04],
                           [-8.51200e-03,  7.43700e-03,  2.55300e-03,  1.53500e-03,  1.37800e-03, -1.11100e-03,  2.74900e-05,  1.34800e-04],
                           [-7.39100e-03, -7.88000e-03,  4.03100e-03,  1.46500e-03, -3.97700e-04,  7.41000e-04, -5.20100e-04, -7.09100e-05],
                           [-7.09600e-03, -2.57800e-03, -4.49700e-03,  1.06700e-03,  1.47700e-03, -5.15500e-04,  8.86300e-05, -1.23600e-05]])

# Reaction 9
chebyshev_reaction('O2 + aR (+ M) <=> aQOOH[O] (+ M)',
                   Tmin=180.0, Tmax=1500.0,
                   Pmin=(0.01, 'atm'), Pmax=(98.692, 'atm'),
                   coeffs=[[ 7.61000e+00,  1.60200e+00, -2.16300e-01, -7.11200e-02, -7.15500e-03,  4.93400e-03,  1.93100e-03, -3.30100e-04],
                           [-3.98200e-01,  2.31900e-01,  1.06000e-01,  1.75700e-02, -9.49400e-03, -5.93400e-03,  1.55600e-04,  1.40500e-03],
                           [ 4.42200e-02, -9.46800e-03,  4.23300e-03,  8.57200e-03,  4.48100e-03,  2.10300e-05, -1.22500e-03, -5.84100e-04],
                           [ 1.66500e-02,  6.37300e-03,  4.26500e-03,  2.44700e-03,  1.20200e-03,  3.55100e-04, -1.12000e-04, -2.11700e-04],
                           [ 1.42000e-02,  3.66500e-02,  1.76500e-02,  3.57600e-03, -1.37100e-03, -1.21500e-03, -2.27400e-04,  1.35700e-04],
                           [ 1.22000e-02,  3.12600e-02,  1.65200e-02,  4.62600e-03, -5.14500e-04, -1.13500e-03, -4.42300e-04,  2.18900e-05],
                           [ 3.77700e-03,  1.40500e-02,  7.93200e-03,  2.78000e-03,  2.65900e-04, -3.38200e-04, -2.28500e-04, -5.95800e-05],
                           [-3.82700e-03,  7.65400e-04,  7.50300e-04,  5.84600e-04,  3.23100e-04,  9.89200e-05, -1.65800e-05, -3.99800e-05],
                           [-2.34900e-03, -2.78400e-03, -1.05700e-03,  1.33800e-04,  4.24300e-04,  2.51600e-04,  5.65000e-05, -2.17700e-05],
                           [-4.44100e-03, -5.09300e-03, -2.36000e-03, -3.77000e-04,  2.73000e-04,  2.01800e-04,  3.49800e-05, -2.46800e-05]])
#  aQOOHb(+M) <=> aQOOHg(+M)                           1.000e+00 0.000     0.000
#      TCHEB/ 180.000   1500.000 /
#      PCHEB/ 0.010     98.692   /
#      CHEB/ 10 8/
#      CHEB/ -3.202e+00   5.669e-01    -5.178e-01   -2.194e-02   1.503e-02   /
#      CHEB/ -1.457e-04   -3.480e-04   2.805e-04    5.220e+00    2.224e+00   /
#      CHEB/ -9.913e-02   -1.045e-01   -1.646e-02   8.528e-03    2.150e-03   /
#      CHEB/ -4.681e-04   4.089e-01    4.462e-01    1.423e-01    -1.600e-02  /
#      CHEB/ -1.849e-02   -4.197e-03   1.652e-03    8.327e-04    -1.037e-01  /
#      CHEB/ 1.149e-01    6.902e-02    7.161e-03    -3.588e-04   -3.824e-03  /
#      CHEB/ -1.604e-03   3.639e-04    -6.474e-02   6.370e-02    4.901e-02   /
#      CHEB/ 1.297e-03    -1.414e-03   3.817e-04    -9.385e-04   -3.839e-04  /
#      CHEB/ -3.629e-02   3.063e-02    3.784e-02    4.285e-03    -4.217e-03  /
#      CHEB/ 2.096e-04    2.265e-04    -2.982e-04   -1.934e-02   1.215e-02   /
#      CHEB/ 1.494e-02    7.635e-03    -2.156e-03   -8.450e-04   4.182e-04   /
#      CHEB/ -6.585e-05   -1.660e-02   7.438e-05    2.597e-04    5.458e-03   /
#      CHEB/ 4.041e-04    -8.307e-04   2.028e-04    9.551e-05    -7.251e-03  /
#      CHEB/ -5.350e-03   -3.511e-03   1.777e-03    1.296e-03    -3.369e-04  /
#      CHEB/ -4.593e-05   1.478e-04    -2.960e-03   -6.462e-03   -2.871e-03  /
#      CHEB/ -1.533e-05   1.033e-03    2.773e-05    -1.634e-04   7.532e-05   /
#  aQOOH[O](+M) <=> aQOOHg(+M)                         1.000e+00 0.000     0.000
#      TCHEB/ 180.000   1500.000 /
#      PCHEB/ 0.010     98.692   /
#      CHEB/ 10 8/
#      CHEB/ 2.552e+00    1.487e+00    -3.702e-01   -3.524e-02   1.389e-02   /
#      CHEB/ 3.572e-05    -5.500e-05   4.201e-04    2.771e+00    1.425e+00   /
#      CHEB/ -6.123e-02   -2.720e-02   -1.740e-02   5.906e-03    1.122e-03   /
#      CHEB/ -9.783e-04   1.581e-02    3.286e-01    5.897e-02    -8.423e-03  /
#      CHEB/ 4.854e-03    -2.655e-03   8.507e-04    1.027e-03    -2.380e-01  /
#      CHEB/ 1.524e-01    1.298e-02    -1.624e-02   -5.593e-05   -9.097e-04  /
#      CHEB/ -1.303e-03   1.388e-04    -6.869e-02   9.066e-02    5.464e-02   /
#      CHEB/ -1.013e-02   -5.856e-03   2.203e-03    -6.632e-04   -6.209e-04  /