units(length='cm', time='s', quantity='mol', act_energy='kcal/mol')

ideal_gas(name='gas',
          elements="H D T C Ci O Oi N Ne Ar He Si S F Cl Br I X",
          species="""OH             bQOOH[O]       acetone
                     H2O            balkoxyketone  ibutenol
                     trisub_epoxy   bQOOHg         CH2O
                     galkene        O2             bR
                     bQOOHa         bRO2           disub_epoxy
                     HO2""",
          reactions='all',
          initial_state=state(temperature=300.0, pressure=OneAtm))

#-------------------------------------------------------------------------------
# Element data
#-------------------------------------------------------------------------------

element(symbol='Ci', atomic_mass=13.003)
element(symbol='D', atomic_mass=2.014)
element(symbol='Oi', atomic_mass=18.0)
element(symbol='T', atomic_mass=3.016)
element(symbol='X', atomic_mass=195.083)
#-------------------------------------------------------------------------------
# Species data
#-------------------------------------------------------------------------------

species(name='OH',
        atoms='H:1 O:1',
        thermo=(NASA([10.00, 984.14],
                     [ 3.49686242E+00,  1.83973160E-04, -9.97634499E-07,
                       1.56942783E-09, -6.10128175E-13,  3.41673934E+03,
                       1.48093120E+00]),
                NASA([984.14, 3000.00],
                     [ 3.45221464E+00, -2.95124034E-04,  7.39418622E-07,
                      -2.89309866E-10,  3.53041498E-14,  3.45751599E+03,
                       1.85813897E+00])))

species(name='bQOOH[O]',
        atoms='C:4 H:9 O:3',
        thermo=(NASA([10.00, 338.69],
                     [ 3.60915854E+00,  3.39069566E-02,  2.22227265E-04,
                      -8.23527342E-07,  8.56246333E-10, -2.23377352E+04,
                       1.23284605E+01]),
                NASA([338.69, 3000.00],
                     [ 5.03198881E+00,  5.46235886E-02, -3.56935806E-05,
                       1.12371751E-08, -1.35390171E-12, -2.26493180E+04,
                       3.82760723E+00])))

species(name='acetone',
        atoms='C:3 H:6 O:1',
        thermo=(NASA([10.00, 414.35],
                     [ 3.73496166E+00,  3.05743218E-02, -1.26253585E-04,
                       3.66080978E-07, -3.31430437E-10, -2.80542054E+04,
                       8.24936012E+00]),
                NASA([414.35, 3000.00],
                     [ 1.70010292E-01,  3.28431468E-02, -1.80960132E-05,
                       4.82960690E-09, -5.02388538E-13, -2.74828223E+04,
                       2.56372653E+01])))

species(name='H2O',
        atoms='H:2 O:1',
        thermo=(NASA([10.00, 773.84],
                     [ 4.00473541E+00, -2.39729134E-04,  8.11862955E-07,
                       1.47891862E-09, -1.19783539E-12, -3.03533807E+04,
                      -9.96254147E-02]),
                NASA([773.84, 3000.00],
                     [ 3.52133374E+00,  1.05377009E-03,  6.40722099E-07,
                      -3.86240235E-10,  5.49243294E-14, -3.02424794E+04,
                       2.34173094E+00])))

species(name='balkoxyketone',
        atoms='C:4 H:7 O:2',
        thermo=(NASA([10.00, 269.93],
                     [ 3.81931151E+00,  1.68519318E-02,  2.42742224E-04,
                      -9.64821161E-07,  1.18509335E-09, -1.88146910E+04,
                       1.20521854E+01]),
                NASA([269.93, 3000.00],
                     [ 3.57555944E+00,  4.28868089E-02, -2.65390705E-05,
                       7.99659117E-09, -9.32983470E-13, -1.88832191E+04,
                       1.13957990E+01])))

species(name='ibutenol',
        atoms='C:4 H:8 O:1',
        thermo=(NASA([10.00, 135.97],
                     [ 3.95714996E+00,  5.72646980E-03,  4.63611760E-04,
                      -3.04137514E-06,  6.85019471E-09, -2.29833977E+04,
                       8.21931848E+00]),
                NASA([135.97, 3000.00],
                     [ 3.32467612E+00,  3.69033556E-02, -1.89960416E-05,
                       4.73417677E-09, -4.59705291E-13, -2.29778190E+04,
                       9.58133237E+00])))

species(name='trisub_epoxy',
        atoms='C:4 H:8 O:2',
        thermo=(NASA([10.00, 209.19],
                     [ 3.75295042E+00,  2.37546930E-02,  1.26610110E-04,
                      -4.78364365E-07,  5.79468168E-10, -4.09212142E+04,
                       1.12739684E+01]),
                NASA([209.19, 3000.00],
                     [ 2.64185254E+00,  4.50006531E-02, -2.57361066E-05,
                       7.15266054E-09, -7.72980731E-13, -4.08747286E+04,
                       1.48960343E+01])))

species(name='bQOOHg',
        atoms='C:4 H:9 O:3',
        thermo=(NASA([10.00, 441.09],
                     [ 3.56595280E+00,  3.36073467E-02,  2.03462772E-04,
                      -5.98977617E-07,  4.83271168E-10, -2.44962797E+04,
                       1.33537891E+01]),
                NASA([441.09, 3000.00],
                     [ 6.09031192E+00,  5.80517622E-02, -4.06392697E-05,
                       1.32574026E-08, -1.62501077E-12, -2.51794651E+04,
                      -1.97849715E+00])))

species(name='CH2O',
        atoms='C:1 H:2 O:1',
        thermo=(NASA([10.00, 601.31],
                     [ 4.03190845E+00, -1.93233367E-03,  8.89743345E-06,
                       2.98105926E-09, -7.90813886E-12, -1.42276270E+04,
                       3.47574660E+00]),
                NASA([601.31, 3000.00],
                     [ 1.40134195E+00,  9.48858016E-03, -4.43088317E-06,
                       9.48452194E-10, -7.43790219E-14, -1.38013869E+04,
                       1.57423780E+01])))

species(name='galkene',
        atoms='C:4 H:8 O:1',
        thermo=(NASA([10.00, 383.47],
                     [ 3.84035604E+00,  1.20378740E-02,  1.87486319E-04,
                      -5.44759148E-07,  4.80711015E-10, -2.09852979E+04,
                       1.02570291E+01]),
                NASA([383.47, 3000.00],
                     [ 4.00413385E+00,  3.79025144E-02, -2.15435710E-05,
                       6.15213311E-09, -6.97446345E-13, -2.12005872E+04,
                       6.98052628E+00])))

species(name='O2',
        atoms='O:2',
        thermo=(NASA([10.00, 605.96],
                     [ 3.50743498E+00, -4.43860349E-04,  1.45938058E-06,
                       1.61509333E-09, -2.32050052E-12, -9.24756224E+02,
                       4.72183634E+00]),
                NASA([605.96, 3000.00],
                     [ 2.87462882E+00,  2.17840991E-03, -1.18262921E-06,
                       2.86910493E-10, -2.53297146E-14, -8.19517838E+02,
                       7.69331810E+00])))

species(name='bR',
        atoms='C:4 H:9 O:1',
        thermo=(NASA([10.00, 483.43],
                     [ 3.38164846E+00,  5.97142637E-02, -1.58320095E-04,
                       3.04908893E-07, -2.13091806E-10, -1.44152834E+04,
                       1.09226843E+01]),
                NASA([483.43, 3000.00],
                     [ 2.33428824E+00,  4.22094427E-02, -2.28029290E-05,
                       6.04614564E-09, -6.30240159E-13, -1.40082014E+04,
                       1.83772893E+01])))

species(name='bQOOHa',
        atoms='C:4 H:9 O:3',
        thermo=(NASA([10.00, 390.53],
                     [ 3.54969236E+00,  3.76592474E-02,  1.76622653E-04,
                      -5.98063750E-07,  5.45069236E-10, -2.96559267E+04,
                       1.31518761E+01]),
                NASA([390.53, 3000.00],
                     [ 5.33564209E+00,  5.64935715E-02, -3.83214298E-05,
                       1.22990604E-08, -1.49549987E-12, -3.00785366E+04,
                       2.59015836E+00])))

species(name='bRO2',
        atoms='C:4 H:9 O:3',
        thermo=(NASA([10.00, 461.39],
                     [ 3.53964713E+00,  3.88723795E-02,  9.57420148E-05,
                      -2.80380499E-07,  2.09647462E-10, -3.09832729E+04,
                       1.18803618E+01]),
                NASA([461.39, 3000.00],
                     [ 3.47201723E+00,  6.00510247E-02, -4.00567321E-05,
                       1.25663813E-08, -1.49496682E-12, -3.11962197E+04,
                       9.77903975E+00])))

species(name='disub_epoxy',
        atoms='C:4 H:8 O:2',
        thermo=(NASA([10.00, 549.41],
                     [ 3.89863211E+00,  5.97532637E-03,  1.66685676E-04,
                      -3.10743768E-07,  1.78330192E-10, -3.70188063E+04,
                       1.13847308E+01]),
                NASA([549.41, 3000.00],
                     [-6.40277648E-01,  6.05960003E-02, -4.13427220E-05,
                       1.31555461E-08, -1.57685017E-12, -3.68456894E+04,
                       2.76005436E+01])))

species(name='HO2',
        atoms='H:1 O:2',
        thermo=(NASA([10.00, 891.11],
                     [ 4.02887004E+00, -1.75769289E-03,  1.08726004E-05,
                      -1.13812972E-08,  3.90113097E-12,  4.95165001E+02,
                       4.69302008E+00]),
                NASA([891.11, 3000.00],
                     [ 3.06571044E+00,  4.28505005E-03, -2.19325920E-06,
                       5.58882699E-10, -5.61246669E-14,  5.98557610E+02,
                       8.84564156E+00])))

#-------------------------------------------------------------------------------
# Reaction data
#-------------------------------------------------------------------------------

# Reaction 1
chebyshev_reaction('bQOOHg (+ M) <=> bRO2 (+ M)',
                   Tmin=180.0, Tmax=1500.0,
                   Pmin=(0.01, 'atm'), Pmax=(98.692, 'atm'),
                   coeffs=[[ 1.71500e-01,  9.76900e-01, -7.21700e-03,  2.19300e-03, -4.61200e-05, -8.17700e-04, -1.61300e-04,  1.41900e-04],
                           [-2.82900e+00,  1.64400e+00,  2.15400e-02,  2.66600e-03, -3.98900e-04, -1.20300e-03, -2.45400e-04,  1.39700e-04],
                           [-3.72400e+00,  8.94200e-01,  9.19200e-02,  2.23100e-03, -1.27400e-03, -2.88800e-04, -1.08700e-04, -1.51000e-04],
                           [-2.89200e+00,  1.08900e-01,  1.23600e-01,  9.43400e-03, -1.90600e-03,  1.88200e-04, -6.79800e-05, -3.04900e-04],
                           [-1.62900e+00, -3.62800e-01,  8.07500e-02,  2.10700e-02, -8.33800e-04, -3.69200e-04, -1.75000e-04, -1.68700e-04],
                           [-5.93000e-01, -4.26100e-01, -4.95300e-03,  2.58400e-02,  2.16700e-03, -1.44600e-03, -3.38400e-04,  1.34800e-04],
                           [-5.87100e-02, -2.29600e-01, -6.98400e-02,  1.66200e-02,  4.97400e-03, -1.73800e-03, -3.96800e-04,  3.13400e-04],
                           [ 8.24100e-02, -3.29600e-03, -7.58300e-02, -1.39900e-03,  4.97200e-03, -4.96900e-04, -2.43800e-04,  1.75700e-04],
                           [ 4.16700e-02,  1.05200e-01, -3.55500e-02, -1.54900e-02,  1.98400e-03,  1.55500e-03,  5.87400e-05, -1.79500e-04],
                           [-7.39100e-04,  8.66800e-02,  8.89000e-03, -1.67800e-02, -1.32300e-03,  2.77500e-03,  2.96400e-04, -4.41900e-04]])

# Reaction 2
chebyshev_reaction('bQOOHa (+ M) <=> bRO2 (+ M)',
                   Tmin=180.0, Tmax=1500.0,
                   Pmin=(0.01, 'atm'), Pmax=(98.692, 'atm'),
                   coeffs=[[ 1.04700e-01,  6.28000e-01,  4.77000e-02, -5.34400e-03, -8.73700e-04,  5.62500e-04,  5.17800e-05, -7.75800e-05],
                           [ 4.27900e-01,  9.96200e-01,  1.01500e-01, -5.07300e-03, -1.45000e-03,  7.71900e-04,  6.97500e-05, -1.20200e-04],
                           [-2.50500e+00,  4.13800e-01,  9.80000e-02,  8.16700e-03, -3.93900e-04,  1.86200e-05, -1.91700e-05, -3.90500e-05],
                           [-1.89600e+00, -1.02300e-01,  5.76700e-02,  1.87800e-02,  1.56000e-03, -5.07700e-04, -1.11000e-04,  3.68500e-05],
                           [-1.06100e+00, -3.19900e-01, -4.00300e-03,  1.73700e-02,  3.41300e-03, -3.84100e-04, -1.24500e-04,  7.17200e-05],
                           [-5.41400e-01, -2.78800e-01, -4.69300e-02,  5.70400e-03,  3.38500e-03,  2.00200e-04, -1.01500e-05,  6.73000e-05],
                           [-1.59900e-01, -1.44100e-01, -5.29400e-02, -5.64400e-03,  1.32500e-03,  6.09900e-04,  1.63100e-04,  4.76600e-05],
                           [ 7.86900e-03, -3.40600e-02, -3.60600e-02, -9.45200e-03, -7.18700e-04,  5.24500e-04,  2.32300e-04,  2.27200e-05],
                           [ 5.71900e-02,  2.39100e-02, -1.75300e-02, -7.33500e-03, -1.03900e-03,  2.77100e-04,  1.27400e-04, -1.99100e-05],
                           [ 8.17200e-02,  4.60600e-02, -5.48300e-03, -4.40600e-03, -1.44000e-04,  2.69900e-04, -3.05500e-05, -7.43200e-05]])

# Reaction 3
chebyshev_reaction('bQOOH[O] (+ M) <=> bRO2 (+ M)',
                   Tmin=180.0, Tmax=1500.0,
                   Pmin=(0.01, 'atm'), Pmax=(98.692, 'atm'),
                   coeffs=[[ 4.47400e+00,  2.08900e+00, -2.40600e-02, -5.21300e-03, -2.58700e-03, -1.55800e-04,  1.61600e-05, -2.77400e-05],
                           [-6.91000e+00,  2.21800e-01,  1.21000e-03,  8.32900e-03,  5.80200e-04,  6.08900e-04,  2.71400e-04,  1.22600e-04],
                           [-3.65900e+00,  9.19000e-02, -1.89700e-02, -4.19200e-03, -2.07500e-03, -1.69000e-04,  1.31000e-04,  6.08300e-05],
                           [-1.86600e+00,  8.45000e-03, -2.55600e-03, -4.13500e-04, -1.76200e-04, -9.02300e-06,  2.15000e-04,  1.39300e-04],
                           [-9.89500e-01, -7.07700e-02, -1.21700e-03,  1.69100e-05,  1.91300e-04, -6.40000e-05,  1.98900e-04,  1.69700e-04],
                           [-5.11600e-01, -1.13800e-01, -1.07700e-02, -1.40200e-03, -2.33600e-04, -7.07800e-05,  1.73200e-04,  1.44700e-04],
                           [-2.66800e-01, -1.00700e-01, -1.75600e-02, -1.50600e-03, -2.62300e-04,  7.40200e-05,  1.65800e-04,  9.84200e-05],
                           [-3.25000e-02, -6.00400e-02, -2.35900e-02, -3.32900e-03, -3.80100e-04,  2.31300e-04,  1.37200e-04,  2.62600e-05],
                           [ 9.32800e-02, -9.83100e-03, -2.23300e-02, -5.58300e-03, -6.28800e-04,  2.95800e-04,  1.03400e-04, -3.42800e-05],
                           [ 7.76100e-03,  3.30400e-02, -1.04500e-02, -4.99300e-03, -3.31900e-04,  2.68400e-04, -4.07000e-06, -7.46300e-05]])

# Reaction 4
chebyshev_reaction('O2 + bR (+ M) <=> bRO2 (+ M)',
                   Tmin=180.0, Tmax=1500.0,
                   Pmin=(0.01, 'atm'), Pmax=(98.692, 'atm'),
                   coeffs=[[ 8.78400e+00,  8.97700e-01, -1.81800e-01,  4.16300e-02, -9.50100e-03,  2.33800e-03, -3.99300e-04, -1.85200e-05],
                           [-2.71500e+00,  1.31000e+00, -1.37000e-01, -4.53800e-03,  9.44000e-03, -2.91300e-03,  6.47500e-04, -1.38600e-04],
                           [-1.97000e+00,  6.83400e-01,  4.03100e-02, -3.20500e-02,  7.00900e-03, -1.06000e-04, -3.79200e-04,  8.47700e-05],
                           [-1.35300e+00,  1.99400e-01,  9.93500e-02, -1.70500e-02, -1.78900e-03,  1.03700e-03, -1.20500e-04, -4.12100e-05],
                           [-8.28200e-01, -6.56200e-02,  7.41100e-02,  4.53100e-03, -4.26800e-03, -3.50400e-04,  3.39300e-04,  1.68200e-05],
                           [-4.35300e-01, -1.60500e-01,  2.56000e-02,  1.28100e-02, -1.35300e-03, -1.35500e-03,  1.96100e-04,  1.66200e-04],
                           [-1.73200e-01, -1.51700e-01, -1.24100e-02,  9.18400e-03,  1.69200e-03, -8.52800e-04, -1.35300e-04,  1.43500e-04],
                           [-2.46000e-02, -9.24900e-02, -3.10300e-02,  1.66800e-03,  2.48500e-03,  2.69700e-04, -1.92700e-04, -1.47100e-05],
                           [ 3.93000e-02, -2.53700e-02, -3.07000e-02, -4.91300e-03,  1.81800e-03,  9.44700e-04, -2.39000e-05, -1.29100e-04],
                           [ 4.85100e-02,  2.57700e-02, -1.92000e-02, -7.37900e-03,  4.64400e-04,  9.99100e-04,  1.06700e-04, -1.34300e-04]])
#  bRO2(+M) <=> bQOOHg(+M)                             1.000e+00 0.000     0.000
#      TCHEB/ 180.000   1500.000 /
#      PCHEB/ 0.010     98.692   /
#      CHEB/ 10 8/
#      CHEB/ -7.641e+00   9.769e-01    -7.217e-03   2.193e-03    -4.612e-05  /
#      CHEB/ -8.177e-04   -1.613e-04   1.419e-04    4.451e+00    1.644e+00   /
#      CHEB/ 2.154e-02    2.666e-03    -3.989e-04   -1.203e-03   -2.454e-04  /
#      CHEB/ 1.397e-04    -3.578e+00   8.942e-01    9.192e-02    2.231e-03   /
#      CHEB/ -1.274e-03   -2.888e-04   -1.087e-04   -1.510e-04   -2.855e+00  /
#      CHEB/ 1.089e-01    1.236e-01    9.434e-03    -1.906e-03   1.882e-04   /
#      CHEB/ -6.798e-05   -3.049e-04   -1.623e+00   -3.628e-01   8.075e-02   /
#      CHEB/ 2.107e-02    -8.338e-04   -3.692e-04   -1.750e-04   -1.687e-04  /
#      CHEB/ -5.931e-01   -4.261e-01   -4.953e-03   2.584e-02    2.167e-03   /
#      CHEB/ -1.446e-03   -3.384e-04   1.348e-04    -5.929e-02   -2.296e-01  /
#      CHEB/ -6.984e-02   1.662e-02    4.974e-03    -1.738e-03   -3.968e-04  /
#      CHEB/ 3.134e-04    8.196e-02    -3.296e-03   -7.583e-02   -1.399e-03  /
#      CHEB/ 4.972e-03    -4.969e-04   -2.438e-04   1.757e-04    4.135e-02   /
#      CHEB/ 1.052e-01    -3.555e-02   -1.549e-02   1.984e-03    1.555e-03   /
#      CHEB/ 5.874e-05    -1.795e-04   -9.255e-04   8.668e-02    8.890e-03   /
#      CHEB/ -1.678e-02   -1.323e-03   2.775e-03    2.964e-04    -4.419e-04  /

# Reaction 5
chebyshev_reaction('bQOOHa (+ M) <=> bQOOHg (+ M)',
                   Tmin=180.0, Tmax=1500.0,
                   Pmin=(0.01, 'atm'), Pmax=(98.692, 'atm'),
                   coeffs=[[-1.09100e+01, -4.40100e-02, -6.32900e-03, -1.74400e-02, -1.79700e-03, -1.28100e-04, -1.35000e-05,  1.17600e-04],
                           [ 4.48700e+00,  2.79900e+00,  1.20900e-01, -2.41800e-02, -4.41700e-03, -4.88300e-04, -1.41900e-04,  1.28900e-04],
                           [-3.52700e+00,  9.59800e-01,  1.85100e-01,  2.23800e-02, -3.06500e-03, -1.61100e-03, -2.54900e-04, -1.04700e-04],
                           [-2.86800e+00, -9.68300e-02,  9.53600e-02,  3.34700e-02,  5.40000e-03, -5.47700e-04, -6.43000e-04, -3.25200e-04],
                           [-1.49300e+00, -3.90000e-01,  1.92400e-02,  1.22800e-02,  4.95600e-03,  1.65400e-03, -2.57300e-04, -3.25200e-04],
                           [-4.96300e-01, -3.51100e-01, -1.79200e-02,  6.97800e-03, -1.08100e-03,  1.85700e-05,  3.33800e-04,  1.44100e-04],
                           [-3.17300e-02, -1.83800e-01, -4.91700e-02,  1.23200e-02, -5.69700e-04, -2.78000e-03, -4.33400e-05,  4.99500e-04],
                           [ 7.41200e-02, -3.67100e-03, -5.80000e-02,  6.03100e-03,  3.56700e-03, -2.17500e-03, -5.81500e-04,  2.52300e-04],
                           [ 3.02600e-02,  8.83100e-02, -3.23800e-02, -7.88000e-03,  4.12400e-03,  9.68400e-04, -4.17100e-04, -2.58900e-04],
                           [-8.58300e-03,  7.22300e-02,  2.83400e-03, -1.45400e-02,  1.30000e-03,  3.32000e-03,  1.07700e-04, -5.48400e-04]])

# Reaction 6
chebyshev_reaction('bQOOH[O] (+ M) <=> bQOOHg (+ M)',
                   Tmin=180.0, Tmax=1500.0,
                   Pmin=(0.01, 'atm'), Pmax=(98.692, 'atm'),
                   coeffs=[[-5.28900e+00,  1.16200e+00,  9.81500e-02,  4.00200e-02,  3.69900e-03, -5.16300e-03, -3.36100e-03, -9.22700e-04],
                           [-4.58300e+00,  1.52000e+00, -4.08300e-02, -1.17300e-02,  3.69400e-03,  4.71900e-03,  2.25100e-03,  4.65400e-04],
                           [-3.79900e+00,  7.32700e-01, -9.22200e-03, -4.35200e-02, -1.47800e-02, -4.77900e-04,  2.02900e-03,  1.17100e-03],
                           [-2.60200e+00,  1.00400e-01,  1.12800e-01,  6.15200e-04, -8.50000e-03, -2.45200e-03, -6.49200e-04, -9.61200e-05],
                           [-1.41200e+00, -3.12900e-01,  1.08500e-01,  3.39600e-02,  9.80500e-04, -1.29100e-03, -1.31900e-03, -7.15200e-04],
                           [-5.32200e-01, -3.99600e-01,  1.07900e-02,  3.68400e-02,  6.23700e-03, -2.40800e-04, -4.75700e-04, -2.42100e-04],
                           [-1.37800e-01, -2.26200e-01, -6.85100e-02,  2.02000e-02,  6.97900e-03, -5.56700e-04,  4.69700e-05,  3.83400e-04],
                           [ 6.02300e-02, -1.18500e-02, -8.35200e-02, -4.36200e-03,  4.12100e-03, -1.23800e-04,  2.78700e-04,  4.55300e-04],
                           [ 9.37300e-02,  9.40400e-02, -4.37400e-02, -1.89500e-02,  4.65400e-04,  1.07100e-03,  3.51800e-05, -6.74000e-05],
                           [-4.56000e-02,  9.06500e-02,  9.06100e-03, -1.74800e-02, -2.27100e-03,  2.23000e-03,  1.10900e-04, -4.94100e-04]])

# Reaction 7
chebyshev_reaction('O2 + bR (+ M) <=> bQOOHg (+ M)',
                   Tmin=180.0, Tmax=1500.0,
                   Pmin=(0.01, 'atm'), Pmax=(98.692, 'atm'),
                   coeffs=[[ 3.17600e+00, -5.78100e-01, -1.59600e-01,  2.37000e-02, -3.64200e-03,  7.75600e-05,  1.81500e-05,  8.93600e-05],
                           [-2.19900e+00,  2.13100e+00, -8.60900e-02, -2.02800e-02,  8.80600e-03, -2.12100e-03,  6.73600e-05,  2.56900e-04],
                           [-2.57200e+00,  9.82300e-01,  1.16700e-01, -2.99900e-02,  1.59400e-04,  2.03600e-03, -3.67300e-04, -1.16300e-04],
                           [-1.83600e+00,  9.31200e-02,  1.46200e-01, -4.00200e-04, -6.24800e-03,  1.67800e-03,  3.75900e-04, -4.39900e-04],
                           [-8.44900e-01, -3.05500e-01,  6.66000e-02,  1.98300e-02, -1.97600e-03, -7.15300e-04,  2.20500e-04, -1.26700e-04],
                           [-1.81200e-01, -3.02700e-01, -2.19200e-02,  1.76000e-02,  3.69300e-03, -1.36800e-03, -4.96500e-04,  2.26000e-04],
                           [ 8.19100e-02, -1.12300e-01, -6.32800e-02,  3.59100e-03,  4.42500e-03, -6.97400e-04, -5.32400e-04,  2.73100e-04],
                           [ 7.89500e-02,  6.27500e-02, -4.98600e-02, -9.58900e-03,  1.16500e-03,  1.27000e-04,  5.15400e-05,  1.34200e-04],
                           [-2.80300e-03,  1.14300e-01, -6.41800e-03, -1.49700e-02, -2.44900e-03,  8.55400e-04,  4.93700e-04, -5.59700e-05],
                           [-4.73000e-02,  5.89200e-02,  2.75400e-02, -9.85900e-03, -3.94400e-03,  1.26200e-03,  4.64700e-04, -2.17800e-04]])
#  bRO2(+M) <=> bQOOHa(+M)                             1.000e+00 0.000     0.000
#      TCHEB/ 180.000   1500.000 /
#      PCHEB/ 0.010     98.692   /
#      CHEB/ 10 8/
#      CHEB/ -8.408e-01   6.280e-01    4.770e-02    -5.344e-03   -8.737e-04  /
#      CHEB/ 5.625e-04    5.178e-05    -7.758e-05   2.082e+00    9.962e-01   /
#      CHEB/ 1.015e-01    -5.073e-03   -1.450e-03   7.719e-04    6.975e-05   /
#      CHEB/ -1.202e-04   -2.450e+00   4.138e-01    9.800e-02    8.167e-03   /
#      CHEB/ -3.939e-04   1.862e-05    -1.917e-05   -3.905e-05   -1.895e+00  /
#      CHEB/ -1.023e-01   5.767e-02    1.878e-02    1.560e-03    -5.077e-04  /
#      CHEB/ -1.110e-04   3.685e-05    -1.066e+00   -3.199e-01   -4.003e-03  /
#      CHEB/ 1.737e-02    3.413e-03    -3.841e-04   -1.245e-04   7.172e-05   /
#      CHEB/ -5.442e-01   -2.788e-01   -4.693e-02   5.704e-03    3.385e-03   /
#      CHEB/ 2.002e-04    -1.015e-05   6.730e-05    -1.613e-01   -1.441e-01  /
#      CHEB/ -5.294e-02   -5.644e-03   1.325e-03    6.099e-04    1.631e-04   /
#      CHEB/ 4.766e-05    7.146e-03    -3.406e-02   -3.606e-02   -9.452e-03  /
#      CHEB/ -7.187e-04   5.245e-04    2.323e-04    2.272e-05    5.685e-02   /
#      CHEB/ 2.391e-02    -1.753e-02   -7.335e-03   -1.039e-03   2.771e-04   /
#      CHEB/ 1.274e-04    -1.991e-05   8.160e-02    4.606e-02    -5.483e-03  /
#      CHEB/ -4.406e-03   -1.440e-04   2.699e-04    -3.055e-05   -7.432e-05  /
#  bQOOHg(+M) <=> bQOOHa(+M)                           1.000e+00 0.000     0.000
#      TCHEB/ 180.000   1500.000 /
#      PCHEB/ 0.010     98.692   /
#      CHEB/ 10 8/
#      CHEB/ -4.043e+00   -4.401e-02   -6.329e-03   -1.744e-02   -1.797e-03  /
#      CHEB/ -1.281e-04   -1.350e-05   1.176e-04    -1.138e+00   2.799e+00   /
#      CHEB/ 1.209e-01    -2.418e-02   -4.417e-03   -4.883e-04   -1.419e-04  /
#      CHEB/ 1.289e-04    -3.618e+00   9.598e-01    1.851e-01    2.238e-02   /
#      CHEB/ -3.065e-03   -1.611e-03   -2.549e-04   -1.047e-04   -2.903e+00  /
#      CHEB/ -9.683e-02   9.536e-02    3.347e-02    5.400e-03    -5.477e-04  /
#      CHEB/ -6.430e-04   -3.252e-04   -1.504e+00   -3.900e-01   1.924e-02   /
#      CHEB/ 1.228e-02    4.956e-03    1.654e-03    -2.573e-04   -3.252e-04  /
#      CHEB/ -4.989e-01   -3.511e-01   -1.792e-02   6.978e-03    -1.081e-03  /
#      CHEB/ 1.857e-05    3.338e-04    1.441e-04    -3.249e-02   -1.838e-01  /
#      CHEB/ -4.917e-02   1.232e-02    -5.697e-04   -2.780e-03   -4.334e-05  /
#      CHEB/ 4.995e-04    7.385e-02    -3.671e-03   -5.800e-02   6.031e-03   /
#      CHEB/ 3.567e-03    -2.175e-03   -5.815e-04   2.523e-04    3.023e-02   /
#      CHEB/ 8.831e-02    -3.238e-02   -7.880e-03   4.124e-03    9.684e-04   /
#      CHEB/ -4.171e-04   -2.589e-04   -8.516e-03   7.223e-02    2.834e-03   /
#      CHEB/ -1.454e-02   1.300e-03    3.320e-03    1.077e-04    -5.484e-04  /

# Reaction 8
chebyshev_reaction('bQOOH[O] (+ M) <=> bQOOHa (+ M)',
                   Tmin=180.0, Tmax=1500.0,
                   Pmin=(0.01, 'atm'), Pmax=(98.692, 'atm'),
                   coeffs=[[ 1.12100e-01,  8.89000e-01,  2.33300e-02,  1.43000e-02,  9.93200e-04, -1.24000e-03, -1.37300e-03, -5.35900e-04],
                           [-5.43900e+00,  1.20300e+00,  3.30400e-02, -1.33000e-02,  5.86100e-03,  2.90900e-03,  6.76500e-04,  4.13400e-05],
                           [-3.16800e+00,  4.16500e-01,  2.28400e-02, -2.65700e-02, -7.08800e-03,  6.94000e-04,  8.12800e-04,  4.95200e-04],
                           [-1.78700e+00, -2.32000e-02,  2.18800e-02,  9.08900e-03, -2.21600e-03, -1.12500e-03,  1.05400e-06,  1.91600e-04],
                           [-9.97600e-01, -1.80800e-01, -1.44700e-02,  1.91500e-02,  5.86600e-03, -7.57100e-04, -5.46700e-04, -1.01200e-04],
                           [-5.10000e-01, -1.81200e-01, -4.26300e-02,  4.88900e-03,  6.84500e-03,  1.05800e-03, -2.43900e-04, -1.50400e-04],
                           [-2.59600e-01, -1.15400e-01, -4.01800e-02, -7.80600e-03,  2.34200e-03,  1.70700e-03,  3.46300e-04, -1.24700e-05],
                           [-1.74700e-02, -4.74000e-02, -2.92000e-02, -1.15600e-02, -2.16300e-03,  9.70700e-04,  6.18300e-04,  1.25300e-04],
                           [ 1.02900e-01,  3.77800e-03, -1.81900e-02, -8.51400e-03, -2.91300e-03,  4.80000e-05,  2.95800e-04,  6.89500e-05],
                           [ 1.07000e-02,  4.14900e-02, -3.87500e-03, -3.73800e-03, -1.19700e-03, -1.40100e-04, -1.27200e-05, -4.70000e-05]])

# Reaction 9
chebyshev_reaction('O2 + bR (+ M) <=> bQOOHa (+ M)',
                   Tmin=180.0, Tmax=1500.0,
                   Pmin=(0.01, 'atm'), Pmax=(98.692, 'atm'),
                   coeffs=[[ 5.49800e+00,  6.46700e-01, -1.87900e-01, -5.91200e-02, -2.29200e-02,  1.48500e-02,  5.08500e-03, -1.61800e-03],
                           [-2.21600e+00,  1.59400e+00,  3.62000e-02,  6.88600e-02,  8.68500e-03, -2.00900e-02, -4.76500e-03,  2.95000e-03],
                           [-1.72800e+00,  6.74200e-01,  4.99300e-02, -5.81500e-03,  2.09800e-02,  1.87400e-03, -2.51100e-03, -1.49500e-03],
                           [-1.19400e+00,  1.68000e-01,  5.17500e-02, -2.50100e-02,  4.69400e-03,  6.20900e-03,  1.04300e-03, -8.14400e-04],
                           [-7.17100e-01, -4.48700e-02,  4.74400e-02, -1.03200e-02, -7.70200e-03,  6.23400e-04,  1.88900e-03,  6.57600e-04],
                           [-3.73700e-01, -1.19400e-01,  2.69200e-02,  5.72300e-03, -6.08100e-03, -2.94700e-03,  3.19000e-04,  6.85900e-04],
                           [-1.52000e-01, -1.25300e-01,  1.11700e-03,  1.06800e-02, -2.96800e-04, -2.39200e-03, -7.62100e-04,  1.10200e-04],
                           [-2.56400e-02, -9.01900e-02, -1.99600e-02,  7.16400e-03,  3.10300e-03, -3.25600e-04, -7.04800e-04, -2.61500e-04],
                           [ 2.67200e-02, -3.83400e-02, -2.86500e-02, -1.76200e-04,  3.72300e-03,  1.16500e-03, -2.01000e-04, -3.06100e-04],
                           [ 4.11700e-02,  1.11500e-02, -2.42900e-02, -6.10400e-03,  2.12000e-03,  1.62600e-03,  2.19600e-04, -1.60900e-04]])
#  bRO2(+M) <=> bQOOH[O](+M)                           1.000e+00 0.000     0.000
#      TCHEB/ 180.000   1500.000 /
#      PCHEB/ 0.010     98.692   /
#      CHEB/ 10 8/
#      CHEB/ -6.768e+00   2.089e+00    -2.406e-02   -5.213e-03   -2.587e-03  /
#      CHEB/ -1.558e-04   1.616e-05    -2.774e-05   2.390e+00    2.218e-01   /
#      CHEB/ 1.210e-03    8.329e-03    5.802e-04    6.089e-04    2.714e-04   /
#      CHEB/ 1.226e-04    -3.665e+00   9.190e-02    -1.897e-02   -4.192e-03  /
#      CHEB/ -2.075e-03   -1.690e-04   1.310e-04    6.083e-05    -1.887e+00  /
#      CHEB/ 8.450e-03    -2.556e-03   -4.135e-04   -1.762e-04   -9.023e-06  /
#      CHEB/ 2.150e-04    1.393e-04    -1.000e+00   -7.077e-02   -1.217e-03  /
#      CHEB/ 1.691e-05    1.913e-04    -6.400e-05   1.989e-04    1.697e-04   /
#      CHEB/ -5.156e-01   -1.138e-01   -1.077e-02   -1.402e-03   -2.336e-04  /
#      CHEB/ -7.078e-05   1.732e-04    1.447e-04    -2.683e-01   -1.007e-01  /
#      CHEB/ -1.756e-02   -1.506e-03   -2.623e-04   7.402e-05    1.658e-04   /
#      CHEB/ 9.842e-05    -3.313e-02   -6.004e-02   -2.359e-02   -3.329e-03  /
#      CHEB/ -3.801e-04   2.313e-04    1.372e-04    2.626e-05    9.310e-02   /
#      CHEB/ -9.831e-03   -2.233e-02   -5.583e-03   -6.288e-04   2.958e-04   /
#      CHEB/ 1.034e-04    -3.428e-05   7.767e-03    3.304e-02    -1.045e-02  /
#      CHEB/ -4.993e-03   -3.319e-04   2.684e-04    -4.070e-06   -7.463e-05  /
#  bQOOHg(+M) <=> bQOOH[O](+M)                         1.000e+00 0.000     0.000
#      TCHEB/ 180.000   1500.000 /
#      PCHEB/ 0.010     98.692   /
#      CHEB/ 10 8/
#      CHEB/ -8.719e+00   1.162e+00    9.815e-02    4.002e-02    3.699e-03   /
#      CHEB/ -5.163e-03   -3.361e-03   -9.227e-04   -2.563e+00   1.520e+00   /
#      CHEB/ -4.083e-02   -1.173e-02   3.694e-03    4.719e-03    2.251e-03   /
#      CHEB/ 4.654e-04    -3.951e+00   7.327e-01    -9.222e-03   -4.352e-02  /
#      CHEB/ -1.478e-02   -4.779e-04   2.029e-03    1.171e-03    -2.660e+00  /