units(length='cm', time='s', quantity='mol', act_energy='kcal/mol')

ideal_gas(name='gas',
          elements="H D T C Ci O Oi N Ne Ar He Si S F Cl Br I X",
          species="""propene3ol       OH               disub_c4ether
                     H2O              disub_epoxy      gQOOHa
                     propene1ol       gQOOHb           ipropylOOH
                     galdoxy          galkene          CH2O
                     O2               gRO2             gQOOHg
                     gR               galdol           monosub_c4ether
                     HO2              gQOOH[O]""",
          reactions='all',
          initial_state=state(temperature=300.0, pressure=OneAtm))

#-------------------------------------------------------------------------------
# Element data
#-------------------------------------------------------------------------------

element(symbol='Ci', atomic_mass=13.003)
element(symbol='D', atomic_mass=2.014)
element(symbol='Oi', atomic_mass=18.0)
element(symbol='T', atomic_mass=3.016)
element(symbol='X', atomic_mass=195.083)
#-------------------------------------------------------------------------------
# Species data
#-------------------------------------------------------------------------------

species(name='propene3ol',
        atoms='C:3 H:6 O:1',
        thermo=(NASA([10.00, 444.81],
                     [ 3.92769709E+00,  4.89977303E-03,  1.13094874E-04,
                      -2.59008187E-07,  1.86205760E-10, -1.82782227E+04,
                       9.90805416E+00]),
                NASA([444.81, 3000.00],
                     [ 2.61720343E+00,  3.01777872E-02, -1.76511625E-05,
                       5.14864061E-09, -5.91153761E-13, -1.82951232E+04,
                       1.36683107E+01])))

species(name='OH',
        atoms='H:1 O:1',
        thermo=(NASA([10.00, 984.14],
                     [ 3.49686242E+00,  1.83973160E-04, -9.97634499E-07,
                       1.56942783E-09, -6.10128175E-13,  3.41673934E+03,
                       1.48093120E+00]),
                NASA([984.14, 3000.00],
                     [ 3.45221464E+00, -2.95124034E-04,  7.39418622E-07,
                      -2.89309866E-10,  3.53041498E-14,  3.45751599E+03,
                       1.85813897E+00])))

species(name='disub_c4ether',
        atoms='C:4 H:8 O:2',
        thermo=(NASA([10.00, 413.50],
                     [ 3.78241323E+00,  1.89501763E-02,  8.65302396E-05,
                      -1.80580575E-07,  1.13656264E-10, -3.89288170E+04,
                       1.09982450E+01]),
                NASA([413.50, 3000.00],
                     [ 4.29420885E-01,  5.13851903E-02, -3.11292293E-05,
                       9.11498284E-09, -1.03192718E-12, -3.86515227E+04,
                       2.42134976E+01])))

species(name='H2O',
        atoms='H:2 O:1',
        thermo=(NASA([10.00, 773.84],
                     [ 4.00473541E+00, -2.39729134E-04,  8.11862955E-07,
                       1.47891862E-09, -1.19783539E-12, -3.03533807E+04,
                      -9.96254147E-02]),
                NASA([773.84, 3000.00],
                     [ 3.52133374E+00,  1.05377009E-03,  6.40722099E-07,
                      -3.86240235E-10,  5.49243294E-14, -3.02424794E+04,
                       2.34173094E+00])))

species(name='disub_epoxy',
        atoms='C:4 H:8 O:2',
        thermo=(NASA([10.00, 549.41],
                     [ 3.89863211E+00,  5.97532637E-03,  1.66685676E-04,
                      -3.10743768E-07,  1.78330192E-10, -3.72818831E+04,
                       1.13847308E+01]),
                NASA([549.41, 3000.00],
                     [-6.40277648E-01,  6.05960003E-02, -4.13427220E-05,
                       1.31555461E-08, -1.57685017E-12, -3.71087662E+04,
                       2.76005436E+01])))

species(name='gQOOHa',
        atoms='C:4 H:9 O:3',
        thermo=(NASA([10.00, 160.74],
                     [ 3.80808147E+00,  2.31043884E-02,  5.26945984E-04,
                      -3.11500696E-06,  6.03881958E-09, -2.69673590E+04,
                       1.17645316E+01]),
                NASA([160.74, 3000.00],
                     [ 2.90630300E+00,  6.50241173E-02, -4.60073244E-05,
                       1.51330930E-08, -1.87074267E-12, -2.69635344E+04,
                       1.36838819E+01])))

species(name='propene1ol',
        atoms='C:3 H:6 O:1',
        thermo=(NASA([10.00, 459.42],
                     [ 3.91245344E+00,  5.85800161E-03,  1.15412006E-04,
                      -2.68014417E-07,  1.91800131E-10, -2.14925492E+04,
                       8.14807684E+00]),
                NASA([459.42, 3000.00],
                     [ 3.14049093E+00,  2.95550898E-02, -1.73843684E-05,
                       5.11506211E-09, -5.92966137E-13, -2.16007717E+04,
                       9.32215170E+00])))

species(name='gQOOHb',
        atoms='C:4 H:9 O:3',
        thermo=(NASA([10.00, 1018.67],
                     [ 3.99028351E+00,  4.29665712E-02,  2.28338778E-05,
                      -5.67914439E-08,  2.29383258E-11, -2.24149269E+04,
                       1.20326731E+01]),
                NASA([1018.67, 3000.00],
                     [ 1.38304153E+01,  3.88527019E-02, -2.19473905E-05,
                       5.78719895E-09, -5.85097740E-13, -2.62110117E+04,
                      -4.44147388E+01])))

species(name='ipropylOOH',
        atoms='C:3 H:7 O:2',
        thermo=(NASA([10.00, 405.01],
                     [ 3.30075623E+00,  7.58672756E-02, -3.35754269E-04,
                       8.05972164E-07, -6.68864582E-10, -2.97051248E+02,
                       1.43372849E+01]),
                NASA([405.01, 3000.00],
                     [ 2.51742509E+00,  3.72760950E-02, -2.12450220E-05,
                       5.83593926E-09, -6.22110649E-13,  1.46356359E+02,
                       2.20991392E+01])))

species(name='galdoxy',
        atoms='C:4 H:7 O:2',
        thermo=(NASA([10.00, 209.62],
                     [ 3.82641108E+00,  1.84758886E-02,  3.43073800E-04,
                      -1.82817005E-06,  2.98516720E-09, -1.96329609E+04,
                       1.17972706E+01]),
                NASA([209.62, 3000.00],
                     [ 4.22049016E+00,  4.03370149E-02, -2.36129482E-05,
                       6.72979114E-09, -7.47862493E-13, -1.97140307E+04,
                       8.97211724E+00])))

species(name='galkene',
        atoms='C:4 H:8 O:1',
        thermo=(NASA([10.00, 383.47],
                     [ 3.84035604E+00,  1.20378740E-02,  1.87486319E-04,
                      -5.44759148E-07,  4.80711015E-10, -2.12048759E+04,
                       1.02570291E+01]),
                NASA([383.47, 3000.00],
                     [ 4.00413385E+00,  3.79025144E-02, -2.15435710E-05,
                       6.15213311E-09, -6.97446345E-13, -2.14201652E+04,
                       6.98052628E+00])))

species(name='CH2O',
        atoms='C:1 H:2 O:1',
        thermo=(NASA([10.00, 601.31],
                     [ 4.03190845E+00, -1.93233367E-03,  8.89743345E-06,
                       2.98105926E-09, -7.90813886E-12, -1.42276270E+04,
                       3.47574660E+00]),
                NASA([601.31, 3000.00],
                     [ 1.40134195E+00,  9.48858016E-03, -4.43088317E-06,
                       9.48452194E-10, -7.43790219E-14, -1.38013869E+04,
                       1.57423780E+01])))

species(name='O2',
        atoms='O:2',
        thermo=(NASA([10.00, 605.96],
                     [ 3.50743498E+00, -4.43860349E-04,  1.45938058E-06,
                       1.61509333E-09, -2.32050052E-12, -9.24756224E+02,
                       4.72183634E+00]),
                NASA([605.96, 3000.00],
                     [ 2.87462882E+00,  2.17840991E-03, -1.18262921E-06,
                       2.86910493E-10, -2.53297146E-14, -8.19517838E+02,
                       7.69331810E+00])))

species(name='gRO2',
        atoms='C:4 H:9 O:3',
        thermo=(NASA([10.00, 177.33],
                     [ 3.70632176E+00,  3.49733664E-02,  4.64036392E-04,
                      -3.18637835E-06,  6.38178607E-09, -2.65867147E+04,
                       1.24459269E+01]),
                NASA([177.33, 3000.00],
                     [ 4.82062697E+00,  5.17179689E-02, -3.18386818E-05,
                       9.52247045E-09, -1.10180288E-12, -2.66920853E+04,
                       7.14082953E+00])))

species(name='gQOOHg',
        atoms='C:4 H:9 O:3',
        thermo=(NASA([10.00, 475.03],
                     [ 3.42273720E+00,  4.98344215E-02,  6.47820920E-05,
                      -2.49842966E-07,  1.98636537E-10, -2.29557614E+04,
                       1.41578583E+01]),
                NASA([475.03, 3000.00],
                     [ 5.94049074E+00,  5.53778585E-02, -3.71708255E-05,
                       1.17540477E-08, -1.40812095E-12, -2.34967157E+04,
                       7.09201218E-01])))

species(name='gR',
        atoms='C:4 H:9 O:1',
        thermo=(NASA([10.00, 638.24],
                     [ 3.37074633E+00,  5.17529751E-02, -6.54872940E-05,
                       6.88084237E-08, -3.21569794E-11, -1.10789845E+04,
                       1.14339669E+01]),
                NASA([638.24, 3000.00],
                     [ 3.99410860E+00,  4.06314915E-02, -2.23932510E-05,
                       6.08356263E-09, -6.49884708E-13, -1.10116097E+04,
                       9.85769960E+00])))

species(name='galdol',
        atoms='C:4 H:8 O:2',
        thermo=(NASA([10.00, 506.68],
                     [ 3.85380874E+00,  9.21272695E-03,  1.86712348E-04,
                      -3.96417049E-07,  2.55528268E-10, -4.60168603E+04,
                       1.24312743E+01]),
                NASA([506.68, 3000.00],
                     [ 1.49710213E+00,  5.65979142E-02, -3.87709084E-05,
                       1.23682052E-08, -1.48287964E-12, -4.61474696E+04,
                       1.85531759E+01])))

species(name='monosub_c4ether',
        atoms='C:4 H:8 O:2',
        thermo=(NASA([10.00, 380.36],
                     [ 3.47743996E+00,  6.08051311E-02, -2.78518945E-04,
                       8.23182713E-07, -7.87158031E-10, -3.22912664E+04,
                       1.06415154E+01]),
                NASA([380.36, 3000.00],
                     [-1.09346901E+00,  5.35985968E-02, -3.21081420E-05,
                       9.20818293E-09, -1.01830294E-12, -3.15437064E+04,
                       3.35312368E+01])))

species(name='HO2',
        atoms='H:1 O:2',
        thermo=(NASA([10.00, 891.11],
                     [ 4.02887004E+00, -1.75769289E-03,  1.08726004E-05,
                      -1.13812972E-08,  3.90113097E-12,  4.95165001E+02,
                       4.69302008E+00]),
                NASA([891.11, 3000.00],
                     [ 3.06571044E+00,  4.28505005E-03, -2.19325920E-06,
                       5.58882699E-10, -5.61246669E-14,  5.98557610E+02,
                       8.84564156E+00])))

species(name='gQOOH[O]',
        atoms='C:4 H:9 O:3',
        thermo=(NASA([10.00, 535.23],
                     [ 3.83107445E+00,  1.02302002E-02,  2.29377261E-04,
                      -4.59095575E-07,  2.77765018E-10, -1.91110656E+04,
                       1.41034859E+01]),
                NASA([535.23, 3000.00],
                     [-4.19283096E-01,  7.69784620E-02, -5.57279000E-05,
                       1.81378295E-08, -2.18295635E-12, -1.91571789E+04,
                       2.72711816E+01])))

#-------------------------------------------------------------------------------
# Reaction data
#-------------------------------------------------------------------------------

# Reaction 1
chebyshev_reaction('gQOOH[O] (+ M) <=> gRO2 (+ M)',
                   Tmin=180.0, Tmax=1500.0,
                   Pmin=(0.01, 'atm'), Pmax=(98.692, 'atm'),
                   coeffs=[[ 5.25100e+00,  1.44200e+00, -1.25800e-01, -1.94800e-02, -2.63200e-03,  1.68400e-03,  4.20000e-04,  3.34100e-05],
                           [-4.53200e+00,  5.17100e-01,  7.15300e-02, -3.62200e-05, -3.67000e-03, -1.86700e-03,  3.90500e-04,  2.97400e-04],
                           [-3.08400e+00, -2.23900e-01, -5.81900e-02,  6.15800e-03,  6.13600e-03,  1.80600e-03,  9.88500e-05, -1.93000e-04],
                           [-1.58800e+00, -1.83900e-01, -5.23000e-02, -9.66200e-03,  5.58900e-04,  1.63300e-03,  5.63600e-04, -1.75300e-05],
                           [-7.49600e-01, -6.54800e-02, -1.04000e-02, -9.02200e-04,  8.45500e-04, -1.57000e-04, -3.09200e-04, -1.12400e-04],
                           [-3.42400e-01, -4.41800e-02, -1.81200e-03,  5.70700e-03,  3.09000e-03,  2.64400e-04, -4.37900e-04, -2.49200e-04],
                           [-1.47500e-01, -3.48000e-02, -9.56900e-03,  5.41900e-04,  1.98400e-03,  4.81300e-04, -7.99100e-05, -6.54000e-05],
                           [-4.44800e-02, -1.82100e-02, -1.13400e-02, -2.49900e-03, -5.72700e-04, -1.51700e-04, -1.49300e-05,  4.68000e-05],
                           [ 1.22100e-03,  7.13700e-03, -6.09000e-03, -2.81900e-03, -8.78700e-04, -3.59100e-04, -1.06800e-04,  1.24300e-05],
                           [ 1.66100e-02,  1.86500e-02, -4.31200e-04, -9.75300e-04, -4.88600e-04, -1.02900e-04, -6.96000e-06, -9.39600e-06]])

# Reaction 2
chebyshev_reaction('gQOOHa (+ M) <=> gRO2 (+ M)',
                   Tmin=180.0, Tmax=1500.0,
                   Pmin=(0.01, 'atm'), Pmax=(98.692, 'atm'),
                   coeffs=[[-1.27600e+00,  6.01400e-01, -4.07700e-02,  2.12100e-02, -9.55700e-04, -8.27600e-04,  1.25600e-04, -4.91100e-05],
                           [ 4.14200e+00,  1.00700e+00, -3.31900e-02,  2.95000e-02,  2.73800e-04, -1.55300e-03,  8.36100e-05, -7.55400e-05],
                           [-2.38200e+00,  5.55700e-01,  5.62100e-02,  8.89500e-03,  2.61200e-03, -8.08300e-04, -3.14300e-04, -4.03600e-05],
                           [-1.98500e+00,  1.11400e-01,  9.81400e-02,  4.06700e-03,  1.48200e-03,  1.73800e-04, -5.20200e-04, -6.00100e-05],
                           [-1.27300e+00, -1.60200e-01,  6.90700e-02,  1.26700e-02, -1.72300e-04,  3.00400e-04, -3.34300e-04, -8.79700e-05],
                           [-6.68700e-01, -2.43200e-01,  7.88500e-03,  1.79600e-02,  9.43800e-04, -2.81600e-04, -6.57000e-05, -3.65900e-05],
                           [-2.61200e-01, -2.01100e-01, -4.07100e-02,  1.20400e-02,  3.54700e-03, -3.98600e-04,  9.64100e-07,  4.62700e-05],
                           [-6.24700e-02, -1.06600e-01, -5.79200e-02, -1.79900e-04,  4.49500e-03,  4.16000e-04, -1.71900e-05,  3.97600e-05],
                           [ 4.19800e-02, -1.45100e-02, -4.74000e-02, -1.03900e-02,  2.78000e-03,  1.44600e-03,  1.08700e-04, -6.80100e-05],
                           [ 5.38800e-02,  4.47400e-02, -2.24700e-02, -1.38200e-02, -2.29000e-04,  1.78200e-03,  3.52500e-04, -1.64700e-04]])

# Reaction 3
chebyshev_reaction('gQOOHg (+ M) <=> gRO2 (+ M)',
                   Tmin=180.0, Tmax=1500.0,
                   Pmin=(0.01, 'atm'), Pmax=(98.692, 'atm'),
                   coeffs=[[ 3.37400e+00,  6.09800e-01, -3.06100e-02,  1.66100e-02,  1.08600e-03, -5.71100e-04, -1.34600e-04,  2.88500e-05],
                           [-1.32500e+00,  9.15100e-01,  9.50600e-04,  1.93700e-02,  4.11300e-03, -1.11700e-03, -1.66300e-04,  1.37000e-06],
                           [-2.91900e+00,  2.86400e-01,  8.60700e-02,  7.29700e-03,  3.05200e-03,  2.46700e-04, -1.99500e-04, -6.44100e-05],
                           [-2.04500e+00, -2.07300e-01,  8.26200e-02,  1.27600e-02,  5.23200e-04,  1.11800e-03, -1.35500e-05, -1.44900e-04],
                           [-1.13300e+00, -3.56100e-01,  4.18900e-03,  1.78300e-02,  1.75300e-03,  6.91300e-04,  1.87600e-04, -1.31600e-04],
                           [-4.82800e-01, -2.52700e-01, -6.19100e-02,  6.44000e-03,  4.84600e-03,  5.53300e-04,  6.08000e-05, -3.60700e-05],
                           [-1.16100e-01, -8.69300e-02, -6.66200e-02, -1.21000e-02,  3.86000e-03,  1.37800e-03, -3.85900e-05,  6.82800e-06],
                           [ 4.48700e-03,  2.21100e-02, -2.93000e-02, -1.93600e-02, -1.69000e-03,  1.68100e-03,  3.10100e-04,  2.21900e-05],
                           [ 3.96600e-02,  5.33200e-02,  7.19000e-03, -1.11100e-02, -6.12300e-03,  3.50200e-04,  7.63000e-04,  1.39300e-04],
                           [ 1.98600e-02,  3.81800e-02,  1.93400e-02,  2.14400e-03, -5.16800e-03, -1.46600e-03,  6.41500e-04,  2.96200e-04]])

# Reaction 4
chebyshev_reaction('gQOOHb (+ M) <=> gRO2 (+ M)',
                   Tmin=180.0, Tmax=1500.0,
                   Pmin=(0.01, 'atm'), Pmax=(98.692, 'atm'),
                   coeffs=[[ 1.05500e+00,  9.06100e-01,  4.66100e-02,  1.35400e-02, -2.81500e-03, -1.36300e-04, -3.18700e-04, -1.61200e-05],
                           [-2.21400e+00,  9.19000e-01,  1.61700e-01,  1.01700e-02, -1.76600e-03, -6.67400e-04, -3.08200e-04, -2.80800e-05],
                           [-2.74800e+00,  1.27200e-01,  2.76000e-02,  5.34000e-03,  2.13200e-03,  4.17000e-04, -1.18500e-04, -1.36900e-05],
                           [-1.48900e+00, -1.02700e-01, -5.27300e-02, -1.10000e-02,  1.32700e-03,  1.12600e-03,  1.77700e-04,  2.30700e-05],
                           [-7.29800e-01, -8.91100e-02, -3.92400e-02, -1.10500e-02, -4.39200e-04,  3.63700e-04,  1.08900e-04,  4.10700e-05],
                           [-3.57400e-01, -4.35700e-02, -1.90900e-02, -2.64200e-03,  5.27100e-04,  8.12900e-05, -9.03300e-05, -1.74800e-05],
                           [-1.41900e-01, -2.76900e-02, -1.11500e-02, -7.05200e-04,  1.13800e-03,  2.58900e-04, -3.20400e-05, -2.78100e-05],
                           [-5.82600e-02, -6.87800e-03, -1.14300e-02, -1.82600e-03,  2.32200e-04,  1.69600e-04,  4.14200e-05,  9.71400e-06],
                           [ 7.43800e-04,  7.16700e-03, -5.97000e-03, -2.69000e-03, -5.44500e-04, -9.86700e-05,  2.48800e-05,  2.02400e-05],
                           [ 7.03700e-03,  2.04100e-02, -1.19500e-03, -1.60500e-03, -6.73000e-04, -1.87100e-04, -1.00300e-05,  9.75100e-06]])

# Reaction 5
chebyshev_reaction('O2 + gR (+ M) <=> gRO2 (+ M)',
                   Tmin=180.0, Tmax=1500.0,
                   Pmin=(0.01, 'atm'), Pmax=(98.692, 'atm'),
                   coeffs=[[ 1.19800e+01,  7.52700e-01, -1.02400e-01,  2.34600e-02, -7.32800e-03,  2.21300e-03, -4.93100e-04, -2.10700e-05],
                           [-3.07400e+00,  1.04700e+00, -5.13400e-02,  1.58200e-03, -2.55400e-04, -6.49300e-04,  4.57500e-04, -6.45200e-05],
                           [-1.94200e+00,  4.64300e-01,  4.30900e-02, -4.73400e-03,  1.04300e-04, -4.69400e-04,  8.74100e-05,  5.60200e-05],
                           [-1.17000e+00,  9.13400e-02,  4.93600e-02,  5.23200e-04,  8.33200e-04, -3.87400e-04, -9.20900e-05,  3.97600e-06],
                           [-6.55500e-01, -6.08500e-02,  2.28500e-02,  1.98900e-03,  1.34900e-03,  2.99000e-05, -7.72400e-05, -6.74500e-05],
                           [-3.28400e-01, -9.14400e-02,  1.67800e-03,  4.84400e-04,  8.15900e-04,  2.11600e-04,  5.47600e-05, -3.18200e-05],
                           [-1.34200e-01, -7.11600e-02, -9.02500e-03, -4.17900e-04,  1.08100e-04,  4.95300e-05,  7.88200e-05,  5.01200e-05],
                           [-3.09600e-02, -3.65400e-02, -1.21100e-02, -8.01000e-04, -9.19000e-05, -8.33900e-05, -1.26900e-05,  6.24200e-05],
                           [ 1.33000e-02, -5.26800e-03, -1.00700e-02, -1.19300e-03, -8.04600e-05, -1.94500e-05, -6.65800e-05,  1.13300e-06],
                           [ 2.33500e-02,  1.43100e-02, -4.93600e-03, -1.41800e-03, -1.40600e-04,  6.71600e-05, -1.99600e-05, -5.21400e-05]])
#  gRO2(+M) <=> gQOOH[O](+M)                           1.000e+00 0.000     0.000
#      TCHEB/ 180.000   1500.000 /
#      PCHEB/ 0.010     98.692   /
#      CHEB/ 10 8/
#      CHEB/ -5.335e+00   1.442e+00    -1.258e-01   -1.948e-02   -2.632e-03  /
#      CHEB/ 1.684e-03    4.200e-04    3.341e-05    3.140e+00    5.171e-01   /
#      CHEB/ 7.153e-02    -3.622e-05   -3.670e-03   -1.867e-03   3.905e-04   /
#      CHEB/ 2.974e-04    -2.911e+00   -2.239e-01   -5.819e-02   6.158e-03   /
#      CHEB/ 6.136e-03    1.806e-03    9.885e-05    -1.930e-04   -1.464e+00  /
#      CHEB/ -1.839e-01   -5.230e-02   -9.662e-03   5.589e-04    1.633e-03   /
#      CHEB/ 5.636e-04    -1.753e-05   -6.959e-01   -6.548e-02   -1.040e-02  /
#      CHEB/ -9.022e-04   8.455e-04    -1.570e-04   -3.092e-04   -1.124e-04  /
#      CHEB/ -3.233e-01   -4.418e-02   -1.812e-03   5.707e-03    3.090e-03   /
#      CHEB/ 2.644e-04    -4.379e-04   -2.492e-04   -1.413e-01   -3.480e-02  /
#      CHEB/ -9.569e-03   5.419e-04    1.984e-03    4.813e-04    -7.991e-05  /
#      CHEB/ -6.540e-05   -4.256e-02   -1.821e-02   -1.134e-02   -2.499e-03  /
#      CHEB/ -5.727e-04   -1.517e-04   -1.493e-05   4.680e-05    1.683e-03   /
#      CHEB/ 7.137e-03    -6.090e-03   -2.819e-03   -8.787e-04   -3.591e-04  /
#      CHEB/ -1.068e-04   1.243e-05    1.659e-02    1.865e-02    -4.312e-04  /
#      CHEB/ -9.753e-04   -4.886e-04   -1.029e-04   -6.960e-06   -9.396e-06  /

# Reaction 6
chebyshev_reaction('gQOOHa (+ M) <=> gQOOH[O] (+ M)',
                   Tmin=180.0, Tmax=1500.0,
                   Pmin=(0.01, 'atm'), Pmax=(98.692, 'atm'),
                   coeffs=[[-1.03500e+01,  6.00700e-01, -1.38800e-01, -3.22200e-02, -8.70900e-03,  1.24800e-03,  1.09700e-03,  2.92400e-04],
                           [ 4.93600e+00,  1.24200e+00,  7.16400e-02,  5.60700e-02, -4.12400e-03, -5.50300e-03,  1.52300e-04,  2.11100e-04],
                           [-3.14700e+00,  7.79300e-02, -4.20500e-02,  1.42200e-02,  1.33100e-02,  3.83000e-03,  1.00300e-04, -6.18700e-04],
                           [-2.07400e+00, -4.28100e-03,  2.92400e-02, -1.88500e-02,  1.11400e-03,  3.24800e-03,  4.11900e-04, -1.69600e-04],
                           [-1.22100e+00, -7.58500e-02,  7.75100e-02,  8.77500e-03, -2.00800e-03, -4.53200e-04, -6.44600e-04, -1.75800e-04],
                           [-6.34700e-01, -1.95000e-01,  3.48100e-02,  2.70600e-02,  2.34100e-03, -7.20800e-04, -5.55000e-04, -2.13400e-04],
                           [-2.74900e-01, -1.96200e-01, -3.42600e-02,  1.69000e-02,  5.41900e-03, -2.28800e-04, -8.52600e-05,  3.99000e-05],
                           [-5.81300e-02, -1.24900e-01, -6.25900e-02, -7.54600e-05,  4.58700e-03,  3.93900e-04, -4.67300e-05,  7.57200e-05],
                           [ 3.34200e-02, -2.09900e-02, -5.28900e-02, -1.18800e-02,  2.66400e-03,  1.29500e-03,  2.44000e-06, -9.76600e-05],
                           [ 5.84500e-02,  4.07800e-02, -2.32800e-02, -1.42800e-02, -3.47000e-04,  1.82500e-03,  3.41900e-04, -1.94600e-04]])

# Reaction 7
chebyshev_reaction('gQOOHg (+ M) <=> gQOOH[O] (+ M)',
                   Tmin=180.0, Tmax=1500.0,
                   Pmin=(0.01, 'atm'), Pmax=(98.692, 'atm'),
                   coeffs=[[-5.79100e+00,  5.70600e-01, -1.33200e-01, -3.01900e-02, -7.19500e-03,  1.40900e-03,  7.02300e-04,  3.80500e-04],
                           [-4.31200e-01,  1.20400e+00,  1.06500e-01,  3.99000e-02,  1.35600e-04, -4.84600e-03,  6.00300e-06,  2.62800e-04],
                           [-3.67600e+00, -1.87300e-01, -1.10800e-02,  1.26700e-02,  1.33600e-02,  4.91700e-03,  2.11400e-04, -6.22800e-04],
                           [-2.17000e+00, -3.36800e-01,  1.25800e-02, -8.10000e-03, -1.41700e-04,  4.14000e-03,  9.35900e-04, -2.58000e-04],
                           [-1.08200e+00, -2.70000e-01,  1.06100e-02,  1.44600e-02,  8.06000e-05, -9.89100e-05, -1.44500e-04, -2.24300e-04],
                           [-4.39400e-01, -1.98600e-01, -3.57100e-02,  1.53700e-02,  6.36600e-03,  1.43600e-04, -4.59500e-04, -2.17300e-04],
                           [-1.29600e-01, -8.15800e-02, -5.94600e-02, -7.33100e-03,  5.65600e-03,  1.58300e-03, -1.15500e-04, -6.53200e-06],
                           [ 5.09400e-03,  2.65800e-03, -3.37300e-02, -1.90900e-02, -1.65500e-03,  1.64000e-03,  2.99700e-04,  5.89800e-05],
                           [ 3.07400e-02,  4.60100e-02,  1.52200e-03, -1.25100e-02, -6.17500e-03,  1.71900e-04,  6.55600e-04,  1.14100e-04],
                           [ 2.51400e-02,  3.43500e-02,  1.82800e-02,  1.66500e-03, -5.22500e-03, -1.41500e-03,  6.18500e-04,  2.66600e-04]])

# Reaction 8
chebyshev_reaction('gQOOHb (+ M) <=> gQOOH[O] (+ M)',
                   Tmin=180.0, Tmax=1500.0,
                   Pmin=(0.01, 'atm'), Pmax=(98.692, 'atm'),
                   coeffs=[[-8.35400e+00,  1.12200e+00, -6.58800e-03, -2.23700e-02, -1.39300e-02, -3.05000e-06,  5.96900e-04,  1.48900e-04],
                           [-1.44700e+00,  1.04000e+00,  2.07300e-01,  3.70800e-02,  5.25900e-03, -2.33200e-03, -1.03100e-03, -1.67900e-05],
                           [-3.29100e+00, -2.47700e-01, -1.43200e-01, -1.17000e-02,  9.37900e-03,  4.61400e-03,  1.17200e-03, -2.66000e-05],
                           [-1.65800e+00, -1.38100e-01, -9.94200e-02, -2.99900e-02, -3.83200e-03,  1.32500e-03,  1.02100e-03,  2.12700e-04],
                           [-7.65100e-01, -8.15000e-03, -1.51500e-02, -2.30700e-03,  7.21700e-04, -6.01000e-04, -5.80100e-04, -2.36500e-04],
                           [-3.46700e-01, -1.65900e-02, -3.71200e-03,  1.00700e-02,  5.20900e-03,  5.35900e-04, -4.93900e-04, -3.55000e-04],
                           [-1.48400e-01, -3.50400e-02, -1.46100e-02,  1.98900e-03,  3.07500e-03,  8.70800e-04,  1.99000e-05, -7.84000e-05],
                           [-4.36900e-02, -2.61400e-02, -1.85700e-02, -2.77300e-03, -6.72600e-04, -1.37600e-04,  9.05300e-05,  8.00200e-05],
                           [ 4.02700e-03, -1.35300e-03, -9.75900e-03, -3.61200e-03, -1.42300e-03, -4.64200e-04, -8.82200e-05,  2.22400e-05],
                           [ 1.96300e-02,  1.48500e-02, -1.93000e-03, -9.60200e-04, -8.71200e-04, -2.44500e-04, -1.54400e-05, -1.49600e-05]])

# Reaction 9
chebyshev_reaction('O2 + gR (+ M) <=> gQOOH[O] (+ M)',
                   Tmin=180.0, Tmax=1500.0,
                   Pmin=(0.01, 'atm'), Pmax=(98.692, 'atm'),
                   coeffs=[[ 3.92100e+00,  1.61400e+00,  3.42400e-02, -1.23700e-02, -3.09800e-02, -1.00000e-02, -4.74600e-03,  3.82000e-04],
                           [-3.72000e+00,  1.63500e-01, -2.05600e-01,  2.60700e-02,  1.81800e-02,  1.23400e-02,  6.71000e-03,  2.95200e-04],
                           [-2.28800e+00,  1.49000e-01, -8.39600e-02, -2.70400e-02,  7.19200e-03,  4.85800e-03,  5.04800e-04, -9.14500e-04],
                           [-1.20900e+00,  9.64600e-02,  2.81300e-02, -1.91600e-02, -5.65100e-03, -1.25700e-03,  7.92200e-06,  2.66300e-04],
                           [-6.37600e-01,  2.46600e-02,  5.15600e-02,  8.53400e-03,  1.13100e-03, -1.27300e-03, -7.57100e-04, -2.36700e-04],
                           [-3.06900e-01, -6.62200e-02,  2.34200e-02,  1.09200e-02,  4.11400e-03,  5.15800e-04, -3.53200e-04, -2.32400e-04],
                           [-1.41400e-01, -7.36600e-02, -1.20400e-02,  2.52100e-03,  2.46400e-03,  7.48700e-04,  1.63000e-04, -8.23700e-06],
                           [-3.17400e-02, -5.66600e-02, -1.84200e-02, -3.12800e-03, -6.15000e-04, -3.51100e-05,  5.42000e-05,  1.30100e-04],
                           [ 7.60600e-03, -8.37000e-03, -1.48400e-02, -2.70100e-03, -6.50800e-04, -3.67100e-04, -1.82700e-04, -2.10500e-05],
                           [ 2.68100e-02,  1.13400e-02, -3.93700e-03, -1.59200e-03, -4.40800e-04, -6.20400e-05, -7.68200e-05, -4.89900e-05]])
#  gRO2(+M) <=> gQOOHa(+M)                             1.000e+00 0.000     0.000
#      TCHEB/ 180.000   1500.000 /
#      PCHEB/ 0.010     98.692   /
#      CHEB/ 10 8/
#      CHEB/ -1.070e+00   6.014e-01    -4.077e-02   2.121e-02    -9.557e-04  /
#      CHEB/ -8.276e-04   1.256e-04    -4.911e-05   3.958e+00    1.007e+00   /
#      CHEB/ -3.319e-02   2.950e-02    2.738e-04    -1.553e-03   8.361e-05   /
#      CHEB/ -7.554e-05   -2.220e+00   5.557e-01    5.621e-02    8.895e-03   /
#      CHEB/ 2.612e-03    -8.083e-04   -3.143e-04   -4.036e-05   -1.911e+00  /
#      CHEB/ 1.114e-01    9.814e-02    4.067e-03    1.482e-03    1.738e-04   /
#      CHEB/ -5.202e-04   -6.001e-05   -1.244e+00   -1.602e-01   6.907e-02   /
#      CHEB/ 1.267e-02    -1.723e-04   3.004e-04    -3.343e-04   -8.797e-05  /
#      CHEB/ -6.589e-01   -2.432e-01   7.885e-03    1.796e-02    9.438e-04   /
#      CHEB/ -2.816e-04   -6.570e-05   -3.659e-05   -2.582e-01   -2.011e-01  /
#      CHEB/ -4.071e-02   1.204e-02    3.547e-03    -3.986e-04   9.641e-07   /
#      CHEB/ 4.627e-05    -6.183e-02   -1.066e-01   -5.792e-02   -1.799e-04  /
#      CHEB/ 4.495e-03    4.160e-04    -1.719e-05   3.976e-05    4.198e-02   /
#      CHEB/ -1.451e-02   -4.740e-02   -1.039e-02   2.780e-03    1.446e-03   /
#      CHEB/ 1.087e-04    -6.801e-05   5.376e-02    4.474e-02    -2.247e-02  /
#      CHEB/ -1.382e-02   -2.290e-04   1.782e-03    3.525e-04    -1.647e-04  /
#  gQOOH[O](+M) <=> gQOOHa(+M)                         1.000e+00 0.000     0.000
#      TCHEB/ 180.000   1500.000 /
#      PCHEB/ 0.010     98.692   /
#      CHEB/ 10 8/
#      CHEB/ 4.402e-01    6.007e-01    -1.388e-01   -3.222e-02   -8.709e-03  /
#      CHEB/ 1.248e-03    1.097e-03    2.924e-04    -2.920e+00   1.242e+00   /
#      CHEB/ 7.164e-02    5.607e-02    -4.124e-03   -5.503e-03   1.523e-04   /
#      CHEB/ 2.111e-04    -3.159e+00   7.793e-02    -4.205e-02   1.422e-02   /
#      CHEB/ 1.331e-02    3.830e-03    1.003e-04    -6.187e-04   -2.125e+00  /
#      CHEB/ -4.281e-03   2.924e-02    -1.885e-02   1.114e-03    3.248e-03   /
#      CHEB/ 4.119e-04    -1.696e-04   -1.246e+00   -7.585e-02   7.751e-02   /
#      CHEB/ 8.775e-03    -2.008e-03   -4.532e-04   -6.446e-04   -1.758e-04  /
#      CHEB/ -6.440e-01   -1.950e-01   3.481e-02    2.706e-02    2.341e-03   /
#      CHEB/ -7.208e-04   -5.550e-04   -2.134e-04   -2.782e-01   -1.962e-01  /
#      CHEB/ -3.426e-02   1.690e-02    5.419e-03    -2.288e-04   -8.526e-05  /
#      CHEB/ 3.990e-05    -5.942e-02   -1.249e-01   -6.259e-02   -7.546e-05  /
#      CHEB/ 4.587e-03    3.939e-04    -4.673e-05   7.572e-05    3.296e-02   /
#      CHEB/ -2.099e-02   -5.289e-02   -1.188e-02   2.664e-03    1.295e-03   /