units(length='cm', time='s', quantity='mol', act_energy='kcal/mol')

ideal_gas(name='gas',
          elements="H D T C Ci O Oi N Ne Ar He Si S F Cl Br I X",
          species="""aOOHbalkene      OH               ibutanal
                     aR               performic_acid   disub_c4ether
                     aQOOHb           H                aadduct
                     trisub_epoxy     ibutenol         aQOOH[O]
                     ipropyl          aRO2             O2
                     formic_acid      propene          aQOOHg
                     ibut_peroxyacid  HO2              CH3""",
          reactions='all',
          initial_state=state(temperature=300.0, pressure=OneAtm))

#-------------------------------------------------------------------------------
# Element data
#-------------------------------------------------------------------------------

element(symbol='Ci', atomic_mass=13.003)
element(symbol='D', atomic_mass=2.014)
element(symbol='Oi', atomic_mass=18.0)
element(symbol='T', atomic_mass=3.016)
element(symbol='X', atomic_mass=195.083)
#-------------------------------------------------------------------------------
# Species data
#-------------------------------------------------------------------------------

species(name='aOOHbalkene',
        atoms='C:3 H:6 O:3',
        thermo=(NASA([10.00, 497.41],
                     [ 3.76691735E+00,  1.51417956E-02,  1.85499431E-04,
                      -4.61303214E-07,  3.27678941E-10, -3.05355429E+04,
                       1.09903968E+01]),
                NASA([497.41, 3000.00],
                     [ 6.20882781E+00,  4.08866173E-02, -2.89934946E-05,
                       9.60428979E-09, -1.19355432E-12, -3.13398722E+04,
                      -4.72842811E+00])))

species(name='OH',
        atoms='H:1 O:1',
        thermo=(NASA([10.00, 984.14],
                     [ 3.49686242E+00,  1.83973160E-04, -9.97634499E-07,
                       1.56942783E-09, -6.10128175E-13,  3.41673934E+03,
                       1.48093120E+00]),
                NASA([984.14, 3000.00],
                     [ 3.45221464E+00, -2.95124034E-04,  7.39418622E-07,
                      -2.89309866E-10,  3.53041498E-14,  3.45751599E+03,
                       1.85813897E+00])))

species(name='ibutanal',
        atoms='C:4 H:8 O:1',
        thermo=(NASA([10.00, 683.88],
                     [ 3.57157346E+00,  3.36936906E-02, -1.78475021E-05,
                       1.31946716E-08, -7.58008388E-12, -2.56028915E+04,
                       1.05595084E+01]),
                NASA([683.88, 3000.00],
                     [ 1.29043622E+00,  4.14804229E-02, -2.27411206E-05,
                       6.08619500E-09, -6.38995128E-13, -2.51609724E+04,
                       2.16477430E+01])))

species(name='aR',
        atoms='C:4 H:9 O:1',
        thermo=(NASA([10.00, 455.22],
                     [ 3.59625500E+00,  3.38947981E-02,  7.37257079E-06,
                      -3.99275335E-08,  2.49019944E-11, -1.32953601E+04,
                       1.18269265E+01]),
                NASA([455.22, 3000.00],
                     [ 2.49586309E+00,  4.35639890E-02, -2.44887770E-05,
                       6.73363769E-09, -7.23862433E-13, -1.31951770E+04,
                       1.62696907E+01])))

species(name='performic_acid',
        atoms='C:1 H:2 O:3',
        thermo=(NASA([10.00, 590.95],
                     [ 3.92633851E+00,  4.24517168E-03,  6.71106764E-05,
                      -1.36545385E-07,  8.03337864E-11, -3.63028176E+04,
                       8.06485813E+00]),
                NASA([590.95, 3000.00],
                     [ 4.39992934E+00,  1.85411415E-02, -1.36005501E-05,
                       4.62292431E-09, -5.88463603E-13, -3.66643888E+04,
                       3.44353230E+00])))

species(name='disub_c4ether',
        atoms='C:4 H:8 O:2',
        thermo=(NASA([10.00, 413.50],
                     [ 3.78241323E+00,  1.89501763E-02,  8.65302396E-05,
                      -1.80580575E-07,  1.13656264E-10, -3.70782618E+04,
                       1.09982450E+01]),
                NASA([413.50, 3000.00],
                     [ 4.29420885E-01,  5.13851903E-02, -3.11292293E-05,
                       9.11498284E-09, -1.03192718E-12, -3.68009675E+04,
                       2.42134976E+01])))

species(name='aQOOHb',
        atoms='C:4 H:9 O:3',
        thermo=(NASA([10.00, 412.78],
                     [ 3.15498836E+00,  8.55068303E-02, -2.35307993E-04,
                       4.71983261E-07, -3.62709267E-10, -3.02149105E+04,
                       1.52522123E+01]),
                NASA([412.78, 3000.00],
                     [ 4.18099845E+00,  5.26168288E-02, -3.23998410E-05,
                       9.59389339E-09, -1.09464519E-12, -3.01041156E+04,
                       1.35782328E+01])))

species(name='H',
        atoms='H:1',
        thermo=(NASA([10.00, 794.01],
                     [ 2.50000000E+00,  1.99051163E-15, -1.19089508E-17,
                       2.10805655E-20, -1.11017699E-23,  2.54725594E+04,
                      -4.61279342E-01]),
                NASA([794.01, 3000.00],
                     [ 2.50000000E+00,  1.52667235E-14, -1.58445285E-17,
                       6.63088600E-21, -9.62111674E-25,  2.54725594E+04,
                      -4.61279342E-01])))

species(name='aadduct',
        atoms='C:4 H:9 O:3',
        thermo=(NASA([10.00, 449.84],
                     [ 3.06901904E+00,  9.20724491E-02, -2.68085092E-04,
                       5.15249897E-07, -3.68046586E-10, -3.10802797E+04,
                       1.46591735E+01]),
                NASA([449.84, 3000.00],
                     [ 4.11210745E+00,  5.16955724E-02, -2.97401041E-05,
                       8.32758939E-09, -9.08861448E-13, -3.08594387E+04,
                       1.39578825E+01])))

species(name='trisub_epoxy',
        atoms='C:4 H:8 O:2',
        thermo=(NASA([10.00, 209.19],
                     [ 3.75295042E+00,  2.37546930E-02,  1.26610110E-04,
                      -4.78364365E-07,  5.79468168E-10, -4.14373357E+04,
                       1.12739684E+01]),
                NASA([209.19, 3000.00],
                     [ 2.64185254E+00,  4.50006531E-02, -2.57361066E-05,
                       7.15266054E-09, -7.72980731E-13, -4.13908501E+04,
                       1.48960343E+01])))

species(name='ibutenol',
        atoms='C:4 H:8 O:1',
        thermo=(NASA([10.00, 135.97],
                     [ 3.95714996E+00,  5.72646980E-03,  4.63611760E-04,
                      -3.04137514E-06,  6.85019471E-09, -2.11657086E+04,
                       8.21931848E+00]),
                NASA([135.97, 3000.00],
                     [ 3.32467612E+00,  3.69033556E-02, -1.89960416E-05,
                       4.73417677E-09, -4.59705291E-13, -2.11601299E+04,
                       9.58133237E+00])))

species(name='aQOOH[O]',
        atoms='C:4 H:9 O:3',
        thermo=(NASA([10.00, 488.36],
                     [ 3.54559533E+00,  3.89536133E-02,  8.47689703E-05,
                      -2.45147486E-07,  1.76157259E-10, -2.34223116E+04,
                       1.34685910E+01]),
                NASA([488.36, 3000.00],
                     [ 3.94214913E+00,  5.71928314E-02, -3.72516212E-05,
                       1.15209013E-08, -1.35808341E-12, -2.37172726E+04,
                       9.21628964E+00])))

species(name='ipropyl',
        atoms='C:3 H:7',
        thermo=(NASA([10.00, 421.76],
                     [ 3.73943775E+00,  3.10070157E-02, -1.51196908E-04,
                       4.35367329E-07, -3.85565052E-10,  9.49213457E+03,
                       7.79448918E+00]),
                NASA([421.76, 3000.00],
                     [-4.74526725E-01,  3.20862468E-02, -1.67340747E-05,
                       4.21365136E-09, -4.13155573E-13,  1.01934458E+04,
                       2.85865912E+01])))

species(name='aRO2',
        atoms='C:4 H:9 O:3',
        thermo=(NASA([10.00, 670.36],
                     [ 3.45405325E+00,  4.74751311E-02,  9.77507759E-06,
                      -6.31019603E-08,  3.75500067E-11, -3.45865055E+04,
                       1.39284976E+01]),
                NASA([670.36, 3000.00],
                     [ 5.04137652E+00,  5.19952978E-02, -3.16472789E-05,
                       9.22798587E-09, -1.03598915E-12, -3.51136980E+04,
                       4.56056770E+00])))

species(name='O2',
        atoms='O:2',
        thermo=(NASA([10.00, 605.96],
                     [ 3.50743498E+00, -4.43860349E-04,  1.45938058E-06,
                       1.61509333E-09, -2.32050052E-12, -9.24756224E+02,
                       4.72183634E+00]),
                NASA([605.96, 3000.00],
                     [ 2.87462882E+00,  2.17840991E-03, -1.18262921E-06,
                       2.86910493E-10, -2.53297146E-14, -8.19517838E+02,
                       7.69331810E+00])))

species(name='formic_acid',
        atoms='C:1 H:2 O:2',
        thermo=(NASA([10.00, 741.38],
                     [ 4.06855785E+00, -4.74562133E-03,  4.71797900E-05,
                      -6.07490052E-08,  2.51286794E-11, -4.66880837E+04,
                       6.53681035E+00]),
                NASA([741.38, 3000.00],
                     [ 1.13645847E+00,  1.74953124E-02, -1.08112403E-05,
                       3.08075326E-09, -3.34892658E-13, -4.64297918E+04,
                       1.86149484E+01])))

species(name='propene',
        atoms='C:3 H:6',
        thermo=(NASA([10.00, 519.53],
                     [ 3.98723879E+00,  4.72040503E-04,  6.51776229E-05,
                      -9.89891002E-08,  4.91141123E-11,  1.99153391E+03,
                       6.98071210E+00]),
                NASA([519.53, 3000.00],
                     [ 3.79893331E-01,  2.82457690E-02, -1.50108430E-05,
                       3.90894069E-09, -4.00521928E-13,  2.36636126E+03,
                       2.20218922E+01])))

species(name='aQOOHg',
        atoms='C:4 H:9 O:3',
        thermo=(NASA([10.00, 455.48],
                     [ 3.62522127E+00,  2.83222320E-02,  2.08527447E-04,
                      -5.67427418E-07,  4.35169138E-10, -2.38965645E+04,
                       1.26617758E+01]),
                NASA([455.48, 3000.00],
                     [ 5.13914202E+00,  5.96270859E-02, -4.14435328E-05,
                       1.34202375E-08, -1.63474553E-12, -2.44971208E+04,
                       1.46991116E+00])))

species(name='ibut_peroxyacid',
        atoms='C:4 H:8 O:3',
        thermo=(NASA([10.00, 1386.21],
                     [ 3.50995385E+00,  4.78670384E-02, -2.40781384E-05,
                       3.71046938E-09,  3.85442115E-13, -4.90390173E+04,
                       1.22017268E+01]),
                NASA([1386.21, 3000.00],
                     [ 1.24543146E+01,  3.02396862E-02, -1.38577031E-05,
                       3.05328904E-09, -2.63982457E-13, -5.23049006E+04,
                      -3.67061828E+01])))

species(name='HO2',
        atoms='H:1 O:2',
        thermo=(NASA([10.00, 891.11],
                     [ 4.02887004E+00, -1.75769289E-03,  1.08726004E-05,
                      -1.13812972E-08,  3.90113097E-12,  4.95165001E+02,
                       4.69302008E+00]),
                NASA([891.11, 3000.00],
                     [ 3.06571044E+00,  4.28505005E-03, -2.19325920E-06,
                       5.58882699E-10, -5.61246669E-14,  5.98557610E+02,
                       8.84564156E+00])))

species(name='CH3',
        atoms='C:1 H:3',
        thermo=(NASA([10.00, 616.77],
                     [ 3.98929952E+00,  5.45150461E-04,  9.01320092E-06,
                      -1.08320497E-08,  4.38985879E-12,  1.65859883E+04,
                       2.22446886E-01]),
                NASA([616.77, 3000.00],
                     [ 3.35928237E+00,  4.63117126E-03, -9.24365433E-07,
                      -9.02514624E-11,  3.56905106E-14,  1.66637014E+04,
                       2.95743732E+00])))

#-------------------------------------------------------------------------------
# Reaction data
#-------------------------------------------------------------------------------

# Reaction 1
chebyshev_reaction('aQOOH[O] (+ M) <=> aQOOHb (+ M)',
                   Tmin=180.0, Tmax=1500.0,
                   Pmin=(0.01, 'atm'), Pmax=(98.692, 'atm'),
                   coeffs=[[-3.59400e+00,  1.88300e+00, -2.39600e-01,  4.55000e-02,  3.32800e-03, -4.69600e-03,  6.43200e-04,  9.16700e-04],
                           [-4.61900e+00,  1.64400e+00,  1.41800e-01, -3.57800e-02, -1.16100e-02,  1.50500e-03,  4.90400e-04, -3.84100e-05],
                           [-2.68300e+00,  5.09800e-01,  1.12800e-01,  2.74200e-02,  1.07900e-03, -6.24500e-03, -3.88400e-04,  7.27000e-04],
                           [-1.51900e+00, -1.37900e-01,  1.28300e-02,  4.01200e-02,  1.66500e-02, -1.85700e-03, -2.94900e-03, -9.87200e-05],
                           [-8.60500e-01, -2.93000e-01, -6.91700e-02,  1.28300e-02,  1.61100e-02,  3.94600e-03, -1.66200e-03, -9.28300e-04],
                           [-4.63200e-01, -2.02500e-01, -8.29600e-02, -1.37100e-02,  6.17100e-03,  4.85400e-03,  5.10500e-04, -6.63500e-04],
                           [-1.50800e-01, -7.58300e-02, -5.39600e-02, -2.15900e-02, -2.31600e-03,  2.07500e-03,  1.11600e-03,  5.84300e-05],
                           [ 3.77300e-03,  1.84700e-02, -1.46500e-02, -1.77400e-02, -6.15900e-03,  2.92100e-04,  8.94800e-04,  1.64100e-04],
                           [ 9.07400e-02,  4.23900e-02,  1.20300e-02, -4.00100e-03, -5.18300e-03, -1.94900e-03,  1.80800e-05,  3.25000e-04],
                           [-5.61600e-03,  4.48500e-02,  2.16500e-02,  2.98300e-03, -2.03200e-03, -1.25500e-03, -3.00200e-04, -3.51300e-05]])

# Reaction 2
chebyshev_reaction('aQOOHg (+ M) <=> aQOOHb (+ M)',
                   Tmin=180.0, Tmax=1500.0,
                   Pmin=(0.01, 'atm'), Pmax=(98.692, 'atm'),
                   coeffs=[[-4.03200e+00,  1.91900e+00, -3.24700e-02,  2.29800e-02, -2.20100e-02, -3.72400e-03,  8.88600e-04, -1.58200e-04],
                           [-4.61200e+00,  1.72200e+00,  1.32600e-01, -3.65100e-03,  1.07800e-02,  1.91700e-03,  1.40000e-03,  1.20200e-04],
                           [-2.91600e+00,  2.34600e-01, -6.34900e-02,  1.18200e-03, -3.11800e-04, -4.27900e-03,  8.41100e-04,  1.40200e-03],
                           [-1.59500e+00, -1.60400e-01, -3.78700e-02,  3.17600e-02,  8.61400e-03, -6.14000e-03, -2.91100e-03,  7.10700e-04],
                           [-8.65400e-01, -2.36300e-01, -4.74200e-02,  2.64400e-02,  1.40800e-02, -5.56000e-04, -2.51500e-03, -3.17800e-04],
                           [-4.51300e-01, -1.62300e-01, -5.41000e-02, -2.59500e-03,  9.81300e-03,  3.41600e-03, -8.31300e-04, -4.32600e-04],
                           [-1.13500e-01, -6.76300e-02, -5.02300e-02, -1.72000e-02,  1.00300e-03,  3.48600e-03,  7.04200e-04, -2.45600e-04],
                           [ 4.04400e-02, -2.11300e-03, -3.07400e-02, -1.51500e-02, -4.71500e-03,  1.11300e-03,  1.16100e-03,  1.21800e-05],
                           [-3.67800e-02,  5.08500e-02,  1.76400e-02, -1.33100e-02, -4.65500e-03, -3.33800e-04, -1.18900e-04,  2.46800e-04],
                           [ 9.87100e-04,  3.06300e-02,  1.40900e-02,  2.10600e-03, -3.43100e-03, -1.83500e-03, -1.28600e-04, -4.39300e-05]])

# Reaction 3
chebyshev_reaction('aRO2 (+ M) <=> aQOOHb (+ M)',
                   Tmin=180.0, Tmax=1500.0,
                   Pmin=(0.01, 'atm'), Pmax=(98.692, 'atm'),
                   coeffs=[[-6.66700e+00,  1.22300e+00,  7.25000e-02, -4.89200e-02, -2.42100e-03,  3.65800e-03,  3.85200e-04, -1.58800e-04],
                           [ 5.32300e+00,  1.83800e+00,  1.47400e-01, -6.15300e-02, -3.95700e-04,  3.35100e-03, -3.14600e-04,  3.79200e-05],
                           [-2.65200e+00,  6.58300e-01,  1.03200e-01,  1.24000e-02,  7.07600e-03, -4.20800e-03, -9.38600e-04,  8.16800e-04],
                           [-1.84900e+00, -1.52900e-01, -3.78500e-03,  4.99200e-02,  1.66300e-02, -6.32600e-03, -1.80000e-03,  8.99700e-04],
                           [-1.05400e+00, -3.52500e-01, -8.44500e-02,  3.08400e-02,  1.63600e-02, -1.66800e-03, -8.33500e-04,  4.13300e-05],
                           [-4.53700e-01, -2.22300e-01, -9.46500e-02, -3.62100e-03,  6.37600e-03,  2.18200e-03,  1.07200e-03, -3.35500e-04],
                           [-1.44700e-01, -5.58400e-02, -6.07900e-02, -1.95700e-02, -2.95300e-03,  1.92500e-03,  1.63600e-03, -9.53700e-05],
                           [-5.95400e-03,  3.29600e-02, -1.88000e-02, -1.60600e-02, -6.26600e-03,  2.02700e-05,  8.57000e-04,  6.28200e-05],
                           [ 4.45400e-02,  5.60100e-02,  1.07300e-02, -5.17600e-03, -5.15100e-03, -1.25000e-03,  1.91800e-05,  2.86000e-05],
                           [ 2.31200e-03,  4.80100e-02,  2.13300e-02,  4.19200e-03, -2.25600e-03, -1.47000e-03, -3.85200e-04, -2.36000e-05]])

# Reaction 4
chebyshev_reaction('aadduct (+ M) <=> aQOOHb (+ M)',
                   Tmin=180.0, Tmax=1500.0,
                   Pmin=(0.01, 'atm'), Pmax=(98.692, 'atm'),
                   coeffs=[[-6.95500e+00,  1.29500e+00, -2.44700e-01, -1.15500e-01,  3.11900e-02,  1.47100e-02, -6.07700e-03, -1.76400e-03],
                           [-9.31200e-01,  1.64800e+00,  4.74000e-01, -5.18700e-02, -4.57500e-02,  6.94100e-03,  7.47400e-03, -8.16400e-04],
                           [-3.49100e+00,  4.64900e-02,  5.17800e-02,  6.34200e-02,  2.22200e-02, -1.06800e-02, -6.30300e-03,  2.79200e-03],
                           [-1.77900e+00, -2.60900e-01, -7.95300e-02,  2.54900e-02,  2.70200e-02,  8.30500e-04, -5.03700e-03, -5.02700e-04],
                           [-8.20000e-01, -1.75800e-01, -2.43700e-02,  6.37800e-03,  3.98000e-03,  2.69800e-03,  5.97400e-04, -6.02600e-04],
                           [-3.60100e-01, -1.48500e-01, -2.32300e-02,  8.90600e-03,  1.46100e-04, -3.55800e-04,  9.14700e-04,  3.68200e-04],
                           [-1.52700e-01, -1.12200e-01, -5.19300e-02, -1.19500e-02,  1.10000e-03,  2.65200e-03,  2.71000e-04, -2.57600e-04],
                           [-6.57600e-02, -8.92400e-03, -3.64500e-02, -2.70800e-02, -5.79100e-03,  3.13300e-03,  1.29000e-03, -3.68800e-04],
                           [-1.13300e-02,  5.78500e-02,  8.41200e-03, -1.09000e-02, -8.73400e-03, -1.43800e-03,  7.25100e-04,  2.75900e-04],
                           [ 8.99800e-03,  5.08600e-02,  3.52300e-02,  7.76000e-03, -3.13800e-03, -2.45900e-03, -9.61100e-04, -6.91200e-05]])

# Reaction 5
chebyshev_reaction('O2 + aR (+ M) <=> aQOOHb (+ M)',
                   Tmin=180.0, Tmax=1500.0,
                   Pmin=(0.01, 'atm'), Pmax=(98.692, 'atm'),
                   coeffs=[[ 1.23000e+00,  6.67000e+00, -1.86800e+00, -1.82000e-01,  2.57900e-01, -5.83200e-02, -3.14300e-02,  3.43100e-02],
                           [-1.63600e+00, -8.17100e-01,  1.80500e+00, -1.93400e-01, -2.40200e-01,  9.11900e-02,  2.35900e-02, -4.02000e-02],
                           [-1.49400e+00, -8.05800e-02,  3.48300e-01,  1.41900e-01, -6.08700e-02, -1.32500e-02,  1.31800e-02, -1.52300e-03],
                           [-8.83500e-01, -3.75000e-01,  7.34100e-02,  8.84200e-02,  1.58300e-03, -1.10600e-02,  1.28800e-03,  3.34000e-03],
                           [-4.59900e-01, -3.08100e-01, -2.57800e-02,  2.14500e-02,  1.70800e-02, -4.07100e-03, -1.40700e-03,  2.43600e-03],
                           [-2.10300e-01, -1.49700e-01, -6.25100e-02,  3.67400e-03,  4.24300e-03,  2.19000e-03, -1.24100e-03,  6.21000e-04],
                           [-6.61900e-02, -4.89800e-02, -3.70700e-02, -1.19400e-02,  1.45300e-03,  8.45900e-04, -5.02400e-04,  6.73600e-04],
                           [-8.80200e-03,  1.36600e-02, -1.43700e-02, -9.09200e-03, -2.41500e-03,  7.61700e-05,  1.30800e-04, -5.69800e-05],
                           [ 1.02300e-02,  2.86100e-02,  6.11000e-03, -4.23800e-03, -2.00500e-03, -1.20200e-03,  2.34100e-04, -3.82000e-05],
                           [ 8.40600e-03,  2.06300e-02,  1.41800e-02,  4.14000e-04, -2.92700e-04, -1.17700e-03, -2.40400e-04,  8.06300e-05]])
#  aQOOHb(+M) <=> aQOOH[O](+M)                         1.000e+00 0.000     0.000
#      TCHEB/ 180.000   1500.000 /
#      PCHEB/ 0.010     98.692   /
#      CHEB/ 10 8/
#      CHEB/ -1.427e+01   1.883e+00    -2.396e-01   4.550e-02    3.328e-03   /
#      CHEB/ -4.696e-03   6.432e-04    9.167e-04    2.413e+00    1.644e+00   /
#      CHEB/ 1.418e-01    -3.578e-02   -1.161e-02   1.505e-03    4.904e-04   /
#      CHEB/ -3.841e-05   -2.605e+00   5.098e-01    1.128e-01    2.742e-02   /
#      CHEB/ 1.079e-03    -6.245e-03   -3.884e-04   7.270e-04    -1.473e+00  /
#      CHEB/ -1.379e-01   1.283e-02    4.012e-02    1.665e-02    -1.857e-03  /
#      CHEB/ -2.949e-03   -9.872e-05   -8.451e-01   -2.930e-01   -6.917e-02  /
#      CHEB/ 1.283e-02    1.611e-02    3.946e-03    -1.662e-03   -9.283e-04  /
#      CHEB/ -4.584e-01   -2.025e-01   -8.296e-02   -1.371e-02   6.171e-03   /
#      CHEB/ 4.854e-03    5.105e-04    -6.635e-04   -1.490e-01   -7.583e-02  /
#      CHEB/ -5.396e-02   -2.159e-02   -2.316e-03   2.075e-03    1.116e-03   /
#      CHEB/ 5.843e-05    4.489e-03    1.847e-02    -1.465e-02   -1.774e-02  /
#      CHEB/ -6.159e-03   2.921e-04    8.948e-04    1.641e-04    9.093e-02   /
#      CHEB/ 4.239e-02    1.203e-02    -4.001e-03   -5.183e-03   -1.949e-03  /
#      CHEB/ 1.808e-05    3.250e-04    -5.609e-03   4.485e-02    2.165e-02   /
#      CHEB/ 2.983e-03    -2.032e-03   -1.255e-03   -3.002e-04   -3.513e-05  /

# Reaction 6
chebyshev_reaction('aQOOHg (+ M) <=> aQOOH[O] (+ M)',
                   Tmin=180.0, Tmax=1500.0,
                   Pmin=(0.01, 'atm'), Pmax=(98.692, 'atm'),
                   coeffs=[[-7.70100e+00,  3.20800e+00, -2.89600e-01,  4.02700e-03,  8.77500e-03, -2.46400e-03,  1.50500e-03, -3.10900e-04],
                           [-5.97000e+00,  2.05100e-01,  8.21100e-02, -3.00800e-02,  4.50600e-03,  6.43900e-03, -2.62900e-03,  3.20500e-04],
                           [-3.30500e+00,  7.85600e-02, -3.14700e-02, -2.20100e-02, -2.62400e-03,  2.45200e-03,  5.23200e-04, -5.98000e-04],
                           [-1.49000e+00, -1.42300e-02, -4.07000e-03,  1.34200e-05, -9.24100e-04, -8.92900e-05,  3.28000e-04, -9.90100e-05],
                           [-7.78600e-01, -6.59000e-02, -1.57100e-02, -1.62300e-03,  2.20400e-04,  6.73000e-04,  4.24400e-04,  9.06100e-05],
                           [-4.72500e-01, -4.46800e-02, -2.41700e-02, -5.63200e-03, -6.91100e-04,  3.27400e-04,  3.34100e-04,  2.48700e-05],
                           [-1.12400e-01, -3.70100e-02, -1.97300e-02, -5.42000e-03, -1.06600e-03, -5.33700e-04, -1.28500e-04,  9.90400e-05],
                           [ 7.58800e-02, -2.90600e-02, -5.69100e-03, -7.02400e-03, -1.64000e-03,  7.24700e-04,  1.32900e-04, -1.15600e-04],
                           [ 1.35300e-02,  5.33600e-02,  2.88000e-04,  9.81900e-04, -7.23800e-04, -1.45400e-03, -1.12800e-04,  1.93200e-04],
                           [-2.21200e-02,  9.16900e-03,  8.46900e-03, -1.55700e-03, -4.97300e-04,  6.58300e-04,  4.83100e-05, -1.79100e-04]])

# Reaction 7
chebyshev_reaction('aRO2 (+ M) <=> aQOOH[O] (+ M)',
                   Tmin=180.0, Tmax=1500.0,
                   Pmin=(0.01, 'atm'), Pmax=(98.692, 'atm'),
                   coeffs=[[-1.12200e+01,  3.03800e+00, -3.46000e-01,  6.02900e-02,  5.75600e-03, -7.56300e-03,  1.79800e-03,  2.77800e-04],
                           [ 5.23100e+00,  3.92900e-01,  1.17300e-01, -7.59600e-02,  9.27200e-03,  1.03100e-02, -3.42600e-03, -6.45900e-04],
                           [-3.52300e+00,  1.48600e-01,  3.64200e-02, -1.04000e-02, -4.42000e-03,  1.35500e-03,  1.02500e-03, -1.03800e-04],
                           [-1.75800e+00, -3.88900e-02,  9.48000e-03,  5.70900e-03, -2.65100e-04, -8.44100e-04,  8.02600e-05,  1.73400e-04],
                           [-8.92600e-01, -9.27000e-02, -1.73900e-02,  3.02400e-03,  2.32100e-03,  8.11800e-05, -2.68300e-04, -9.79800e-05],
                           [-4.44700e-01, -7.76700e-02, -2.27900e-02, -3.12300e-03,  1.22300e-03,  8.34800e-04, -5.72600e-05, -1.15600e-04],
                           [-1.35900e-01, -3.53100e-02, -1.98900e-02, -4.90500e-03, -1.93900e-04,  3.22000e-04,  9.18400e-05,  7.88800e-06],
                           [ 9.82500e-03,  1.03600e-02, -5.69000e-03, -4.83800e-03, -1.51300e-03,  4.32500e-05,  1.28600e-04, -1.36700e-05],
                           [ 8.57700e-02,  2.63300e-02, -1.81800e-04, -4.79100e-04, -9.70900e-04, -6.88100e-04,  6.64500e-05,  5.08300e-05],
                           [-1.21300e-02,  2.88000e-02,  1.03400e-02,  7.91300e-04, -9.50100e-04, -4.93300e-04, -4.84200e-05,  4.62900e-05]])

# Reaction 8
chebyshev_reaction('aadduct (+ M) <=> aQOOH[O] (+ M)',
                   Tmin=180.0, Tmax=1500.0,
                   Pmin=(0.01, 'atm'), Pmax=(98.692, 'atm'),
                   coeffs=[[-1.13800e+01,  3.32200e+00, -6.49700e-01, -3.51200e-02,  2.82900e-02,  1.05300e-02, -1.98100e-04, -4.03900e-03],
                           [-1.24000e+00, -2.43100e-02,  3.49900e-01, -1.49000e-02, -1.77100e-02, -3.49400e-03,  6.40400e-04,  3.37000e-03],
                           [-4.30500e+00, -3.21000e-01, -2.80700e-02,  3.65800e-02,  1.03900e-02, -3.81100e-03, -2.52300e-03,  3.39700e-04],
                           [-1.67200e+00, -7.09800e-02, -7.73800e-02, -1.10900e-02,  1.01200e-02,  3.54700e-03, -1.22700e-03, -9.25500e-04],
                           [-6.83300e-01,  8.56400e-02,  1.32000e-02, -1.50000e-02, -7.28600e-03,  1.41000e-03,  1.54200e-03, -1.81000e-04],
                           [-3.58300e-01,  8.56200e-03,  2.75300e-02,  9.72600e-03, -4.12400e-03, -3.12600e-03,  1.07100e-04,  6.40900e-04],
                           [-1.41800e-01, -7.29900e-02, -1.74500e-02,  4.85200e-03,  3.75300e-03, -3.37100e-04, -8.48500e-04, -3.59600e-05],
                           [-4.65500e-02, -1.81900e-02, -2.51400e-02, -1.36700e-02, -6.10300e-04,  2.34900e-03,  7.23100e-04, -3.06500e-04],
                           [ 3.45700e-02,  3.67900e-02, -4.61200e-03, -6.18900e-03, -3.58100e-03, -7.20400e-04,  5.79700e-04,  1.91200e-04],
                           [-1.00400e-02,  2.56700e-02,  2.22200e-02,  5.32300e-03, -1.60200e-03, -1.84700e-03, -5.15700e-04,  1.94200e-04]])

# Reaction 9
chebyshev_reaction('O2 + aR (+ M) <=> aQOOH[O] (+ M)',
                   Tmin=180.0, Tmax=1500.0,
                   Pmin=(0.01, 'atm'), Pmax=(98.692, 'atm'),
                   coeffs=[[-5.40100e+00,  5.84600e+00,  1.92500e-02, -7.10900e-01,  3.22500e-02,  1.55800e-01, -3.35400e-02, -2.39400e-02],
                           [-1.22700e+00, -2.19600e+00,  5.04500e-01,  6.65700e-01, -1.69700e-01, -1.77700e-01,  7.07400e-02,  2.54300e-02],
                           [-1.37900e+00,  2.39600e-02,  1.62700e-03,  5.04000e-02,  8.63400e-02, -1.95900e-03, -4.00100e-02,  6.31300e-03],
                           [-7.22300e-01, -6.92000e-02, -5.57800e-02,  9.17400e-04,  3.55200e-02,  1.63600e-02, -7.68500e-03, -7.02000e-03],
                           [-4.12100e-01, -9.66800e-02, -5.64700e-02, -1.32000e-02,  5.91500e-03,  1.08300e-02,  3.58500e-03, -4.05100e-03],
                           [-2.63100e-01, -6.71300e-02, -4.25600e-02, -1.68600e-02, -9.01900e-04,  4.16100e-03,  2.56300e-03, -7.09400e-05],
                           [-9.11300e-02, -3.70000e-02, -2.05200e-02, -1.09300e-02, -4.70800e-03,  2.66300e-04,  1.75600e-03,  4.24700e-04],
                           [ 5.12400e-03,  3.42000e-03, -8.37400e-03, -8.48800e-03, -2.50200e-03, -2.36700e-04,  2.84400e-04,  5.58300e-04],
                           [ 7.81300e-02,  1.06000e-02,  8.20500e-03,  1.70000e-04, -3.82000e-03, -1.54900e-03,  2.14100e-04,  2.03400e-04],
                           [-1.32900e-02,  2.08000e-02,  6.30300e-03,  9.02800e-04, -7.22200e-05, -4.74400e-04, -8.16600e-05,  4.82800e-05]])
#  aQOOHb(+M) <=> aQOOHg(+M)                           1.000e+00 0.000     0.000
#      TCHEB/ 180.000   1500.000 /
#      PCHEB/ 0.010     98.692   /
#      CHEB/ 10 8/
#      CHEB/ -1.426e+01   1.919e+00    -3.247e-02   2.298e-02    -2.201e-02  /
#      CHEB/ -3.724e-03   8.886e-04    -1.582e-04   2.222e+00    1.722e+00   /
#      CHEB/ 1.326e-01    -3.651e-03   1.078e-02    1.917e-03    1.400e-03   /
#      CHEB/ 1.202e-04    -2.692e+00   2.346e-01    -6.349e-02   1.182e-03   /
#      CHEB/ -3.118e-04   -4.279e-03   8.411e-04    1.402e-03    -1.501e+00  /
#      CHEB/ -1.604e-01   -3.787e-02   3.176e-02    8.614e-03    -6.140e-03  /
#      CHEB/ -2.911e-03   7.107e-04    -8.372e-01   -2.363e-01   -4.742e-02  /
#      CHEB/ 2.644e-02    1.408e-02    -5.560e-04   -2.515e-03   -3.178e-04  /
#      CHEB/ -4.435e-01   -1.623e-01   -5.410e-02   -2.595e-03   9.813e-03   /
#      CHEB/ 3.416e-03    -8.313e-04   -4.326e-04   -1.110e-01   -6.763e-02  /
#      CHEB/ -5.023e-02   -1.720e-02   1.003e-03    3.486e-03    7.042e-04   /
#      CHEB/ -2.456e-04   4.116e-02    -2.113e-03   -3.074e-02   -1.515e-02  /
#      CHEB/ -4.715e-03   1.113e-03    1.161e-03    1.218e-05    -3.675e-02  /
#      CHEB/ 5.085e-02    1.764e-02    -1.331e-02   -4.655e-03   -3.338e-04  /
#      CHEB/ -1.189e-04   2.468e-04    8.452e-04    3.063e-02    1.409e-02   /
#      CHEB/ 2.106e-03    -3.431e-03   -1.835e-03   -1.286e-04   -4.393e-05  /
#  aQOOH[O](+M) <=> aQOOHg(+M)                         1.000e+00 0.000     0.000
#      TCHEB/ 180.000   1500.000 /
#      PCHEB/ 0.010     98.692   /
#      CHEB/ 10 8/
#      CHEB/ -7.256e+00   3.208e+00    -2.896e-01   4.027e-03    8.775e-03   /
#      CHEB/ -2.464e-03   1.505e-03    -3.109e-04   -6.169e+00   2.051e-01   /
#      CHEB/ 8.211e-02    -3.008e-02   4.506e-03    6.439e-03    -2.629e-03  /
#      CHEB/ 3.205e-04    -3.160e+00   7.856e-02    -3.147e-02   -2.201e-02  /
#      CHEB/ -2.624e-03   2.452e-03    5.232e-04    -5.980e-04   -1.442e+00  /
#      CHEB/ -1.423e-02   -4.070e-03   1.342e-05    -9.241e-04   -8.929e-05  /
#      CHEB/ 3.280e-04    -9.901e-05   -7.657e-01   -6.590e-02   -1.571e-02  /
#      CHEB/ -1.623e-03   2.204e-04    6.730e-04    4.244e-04    9.061e-05   /