units(length='cm', time='s', quantity='mol', act_energy='kcal/mol')

ideal_gas(name='gas',
          elements="H D T C Ci O Oi N Ne Ar He Si S F Cl Br I X",
          species="""aOOHbalkene      OH               ibutanal
                     aR               performic_acid   disub_c4ether
                     aQOOHb           H                aadduct
                     trisub_epoxy     ibutenol         aQOOH[O]
                     ipropyl          aRO2             O2
                     formic_acid      propene          aQOOHg
                     ibut_peroxyacid  HO2              CH3""",
          reactions='all',
          initial_state=state(temperature=300.0, pressure=OneAtm))

#-------------------------------------------------------------------------------
# Element data
#-------------------------------------------------------------------------------

element(symbol='Ci', atomic_mass=13.003)
element(symbol='D', atomic_mass=2.014)
element(symbol='Oi', atomic_mass=18.0)
element(symbol='T', atomic_mass=3.016)
element(symbol='X', atomic_mass=195.083)
#-------------------------------------------------------------------------------
# Species data
#-------------------------------------------------------------------------------

species(name='aOOHbalkene',
        atoms='C:3 H:6 O:3',
        thermo=(NASA([10.00, 497.41],
                     [ 3.76691735E+00,  1.51417956E-02,  1.85499431E-04,
                      -4.61303214E-07,  3.27678941E-10, -3.19573166E+04,
                       1.09903968E+01]),
                NASA([497.41, 3000.00],
                     [ 6.20882781E+00,  4.08866173E-02, -2.89934946E-05,
                       9.60428979E-09, -1.19355432E-12, -3.27616459E+04,
                      -4.72842811E+00])))

species(name='OH',
        atoms='H:1 O:1',
        thermo=(NASA([10.00, 984.14],
                     [ 3.49686242E+00,  1.83973160E-04, -9.97634499E-07,
                       1.56942783E-09, -6.10128175E-13,  3.41673934E+03,
                       1.48093120E+00]),
                NASA([984.14, 3000.00],
                     [ 3.45221464E+00, -2.95124034E-04,  7.39418622E-07,
                      -2.89309866E-10,  3.53041498E-14,  3.45751599E+03,
                       1.85813897E+00])))

species(name='ibutanal',
        atoms='C:4 H:8 O:1',
        thermo=(NASA([10.00, 683.88],
                     [ 3.57157346E+00,  3.36936906E-02, -1.78475021E-05,
                       1.31946716E-08, -7.58008388E-12, -2.80846914E+04,
                       1.05595084E+01]),
                NASA([683.88, 3000.00],
                     [ 1.29043622E+00,  4.14804229E-02, -2.27411206E-05,
                       6.08619500E-09, -6.38995128E-13, -2.76427723E+04,
                       2.16477430E+01])))

species(name='aR',
        atoms='C:4 H:9 O:1',
        thermo=(NASA([10.00, 455.22],
                     [ 3.59625500E+00,  3.38947981E-02,  7.37257079E-06,
                      -3.99275335E-08,  2.49019944E-11, -1.35664999E+04,
                       1.18269265E+01]),
                NASA([455.22, 3000.00],
                     [ 2.49586309E+00,  4.35639890E-02, -2.44887770E-05,
                       6.73363769E-09, -7.23862433E-13, -1.34663167E+04,
                       1.62696907E+01])))

species(name='performic_acid',
        atoms='C:1 H:2 O:3',
        thermo=(NASA([10.00, 590.95],
                     [ 3.92633851E+00,  4.24517168E-03,  6.71106764E-05,
                      -1.36545385E-07,  8.03337864E-11, -3.63028176E+04,
                       8.06485813E+00]),
                NASA([590.95, 3000.00],
                     [ 4.39992934E+00,  1.85411415E-02, -1.36005501E-05,
                       4.62292431E-09, -5.88463603E-13, -3.66643888E+04,
                       3.44353230E+00])))

species(name='disub_c4ether',
        atoms='C:4 H:8 O:2',
        thermo=(NASA([10.00, 413.50],
                     [ 3.78241323E+00,  1.89501763E-02,  8.65302396E-05,
                      -1.80580575E-07,  1.13656264E-10, -3.91894772E+04,
                       1.09982450E+01]),
                NASA([413.50, 3000.00],
                     [ 4.29420885E-01,  5.13851903E-02, -3.11292293E-05,
                       9.11498284E-09, -1.03192718E-12, -3.89121829E+04,
                       2.42134976E+01])))

species(name='aQOOHb',
        atoms='C:4 H:9 O:3',
        thermo=(NASA([10.00, 412.78],
                     [ 3.15498836E+00,  8.55068303E-02, -2.35307993E-04,
                       4.71983261E-07, -3.62709267E-10, -2.92311679E+04,
                       1.52522123E+01]),
                NASA([412.78, 3000.00],
                     [ 4.18099845E+00,  5.26168288E-02, -3.23998410E-05,
                       9.59389339E-09, -1.09464519E-12, -2.91203729E+04,
                       1.35782328E+01])))

species(name='H',
        atoms='H:1',
        thermo=(NASA([10.00, 794.01],
                     [ 2.50000000E+00,  1.99051163E-15, -1.19089508E-17,
                       2.10805655E-20, -1.11017699E-23,  2.54725594E+04,
                      -4.61279342E-01]),
                NASA([794.01, 3000.00],
                     [ 2.50000000E+00,  1.52667235E-14, -1.58445285E-17,
                       6.63088600E-21, -9.62111674E-25,  2.54725594E+04,
                      -4.61279342E-01])))

species(name='aadduct',
        atoms='C:4 H:9 O:3',
        thermo=(NASA([10.00, 449.84],
                     [ 3.06901904E+00,  9.20724491E-02, -2.68085092E-04,
                       5.15249897E-07, -3.68046586E-10, -2.92714556E+04,
                       1.46591735E+01]),
                NASA([449.84, 3000.00],
                     [ 4.11210745E+00,  5.16955724E-02, -2.97401041E-05,
                       8.32758939E-09, -9.08861448E-13, -2.90506146E+04,
                       1.39578825E+01])))

species(name='trisub_epoxy',
        atoms='C:4 H:8 O:2',
        thermo=(NASA([10.00, 209.19],
                     [ 3.75295042E+00,  2.37546930E-02,  1.26610110E-04,
                      -4.78364365E-07,  5.79468168E-10, -4.01159578E+04,
                       1.12739684E+01]),
                NASA([209.19, 3000.00],
                     [ 2.64185254E+00,  4.50006531E-02, -2.57361066E-05,
                       7.15266054E-09, -7.72980731E-13, -4.00694722E+04,
                       1.48960343E+01])))

species(name='ibutenol',
        atoms='C:4 H:8 O:1',
        thermo=(NASA([10.00, 135.97],
                     [ 3.95714996E+00,  5.72646980E-03,  4.63611760E-04,
                      -3.04137514E-06,  6.85019471E-09, -2.44148750E+04,
                       8.21931848E+00]),
                NASA([135.97, 3000.00],
                     [ 3.32467612E+00,  3.69033556E-02, -1.89960416E-05,
                       4.73417677E-09, -4.59705291E-13, -2.44092964E+04,
                       9.58133237E+00])))

species(name='aQOOH[O]',
        atoms='C:4 H:9 O:3',
        thermo=(NASA([10.00, 488.36],
                     [ 3.54559533E+00,  3.89536133E-02,  8.47689703E-05,
                      -2.45147486E-07,  1.76157259E-10, -2.30275083E+04,
                       1.34685910E+01]),
                NASA([488.36, 3000.00],
                     [ 3.94214913E+00,  5.71928314E-02, -3.72516212E-05,
                       1.15209013E-08, -1.35808341E-12, -2.33224692E+04,
                       9.21628964E+00])))

species(name='ipropyl',
        atoms='C:3 H:7',
        thermo=(NASA([10.00, 421.76],
                     [ 3.73943775E+00,  3.10070157E-02, -1.51196908E-04,
                       4.35367329E-07, -3.85565052E-10,  9.49213457E+03,
                       7.79448918E+00]),
                NASA([421.76, 3000.00],
                     [-4.74526725E-01,  3.20862468E-02, -1.67340747E-05,
                       4.21365136E-09, -4.13155573E-13,  1.01934458E+04,
                       2.85865912E+01])))

species(name='aRO2',
        atoms='C:4 H:9 O:3',
        thermo=(NASA([10.00, 670.36],
                     [ 3.45405325E+00,  4.74751311E-02,  9.77507759E-06,
                      -6.31019603E-08,  3.75500067E-11, -3.33189083E+04,
                       1.39284976E+01]),
                NASA([670.36, 3000.00],
                     [ 5.04137652E+00,  5.19952978E-02, -3.16472789E-05,
                       9.22798587E-09, -1.03598915E-12, -3.38461008E+04,
                       4.56056770E+00])))

species(name='O2',
        atoms='O:2',
        thermo=(NASA([10.00, 605.96],
                     [ 3.50743498E+00, -4.43860349E-04,  1.45938058E-06,
                       1.61509333E-09, -2.32050052E-12, -9.24756224E+02,
                       4.72183634E+00]),
                NASA([605.96, 3000.00],
                     [ 2.87462882E+00,  2.17840991E-03, -1.18262921E-06,
                       2.86910493E-10, -2.53297146E-14, -8.19517838E+02,
                       7.69331810E+00])))

species(name='formic_acid',
        atoms='C:1 H:2 O:2',
        thermo=(NASA([10.00, 741.38],
                     [ 4.06855785E+00, -4.74562133E-03,  4.71797900E-05,
                      -6.07490052E-08,  2.51286794E-11, -4.66880837E+04,
                       6.53681035E+00]),
                NASA([741.38, 3000.00],
                     [ 1.13645847E+00,  1.74953124E-02, -1.08112403E-05,
                       3.08075326E-09, -3.34892658E-13, -4.64297918E+04,
                       1.86149484E+01])))

species(name='propene',
        atoms='C:3 H:6',
        thermo=(NASA([10.00, 519.53],
                     [ 3.98723879E+00,  4.72040503E-04,  6.51776229E-05,
                      -9.89891002E-08,  4.91141123E-11,  3.24717879E+03,
                       6.98071210E+00]),
                NASA([519.53, 3000.00],
                     [ 3.79893331E-01,  2.82457690E-02, -1.50108430E-05,
                       3.90894069E-09, -4.00521928E-13,  3.62200614E+03,
                       2.20218922E+01])))

species(name='aQOOHg',
        atoms='C:4 H:9 O:3',
        thermo=(NASA([10.00, 455.48],
                     [ 3.62522127E+00,  2.83222320E-02,  2.08527447E-04,
                      -5.67427418E-07,  4.35169138E-10, -2.58820779E+04,
                       1.26617758E+01]),
                NASA([455.48, 3000.00],
                     [ 5.13914202E+00,  5.96270859E-02, -4.14435328E-05,
                       1.34202375E-08, -1.63474553E-12, -2.64826343E+04,
                       1.46991116E+00])))

species(name='ibut_peroxyacid',
        atoms='C:4 H:8 O:3',
        thermo=(NASA([10.00, 1386.21],
                     [ 3.50995385E+00,  4.78670384E-02, -2.40781384E-05,
                       3.71046938E-09,  3.85442115E-13, -5.02124595E+04,
                       1.22017268E+01]),
                NASA([1386.21, 3000.00],
                     [ 1.24543146E+01,  3.02396862E-02, -1.38577031E-05,
                       3.05328904E-09, -2.63982457E-13, -5.34783428E+04,
                      -3.67061828E+01])))

species(name='HO2',
        atoms='H:1 O:2',
        thermo=(NASA([10.00, 891.11],
                     [ 4.02887004E+00, -1.75769289E-03,  1.08726004E-05,
                      -1.13812972E-08,  3.90113097E-12,  4.95165001E+02,
                       4.69302008E+00]),
                NASA([891.11, 3000.00],
                     [ 3.06571044E+00,  4.28505005E-03, -2.19325920E-06,
                       5.58882699E-10, -5.61246669E-14,  5.98557610E+02,
                       8.84564156E+00])))

species(name='CH3',
        atoms='C:1 H:3',
        thermo=(NASA([10.00, 616.77],
                     [ 3.98929952E+00,  5.45150461E-04,  9.01320092E-06,
                      -1.08320497E-08,  4.38985879E-12,  1.65859883E+04,
                       2.22446886E-01]),
                NASA([616.77, 3000.00],
                     [ 3.35928237E+00,  4.63117126E-03, -9.24365433E-07,
                      -9.02514624E-11,  3.56905106E-14,  1.66637014E+04,
                       2.95743732E+00])))

#-------------------------------------------------------------------------------
# Reaction data
#-------------------------------------------------------------------------------

# Reaction 1
chebyshev_reaction('aQOOH[O] (+ M) <=> aQOOHb (+ M)',
                   Tmin=180.0, Tmax=1500.0,
                   Pmin=(0.01, 'atm'), Pmax=(98.692, 'atm'),
                   coeffs=[[-1.75800e+00,  1.87000e+00, -8.15800e-02,  1.24900e-02, -1.17900e-02,  3.71300e-03, -4.89100e-04, -1.10800e-04],
                           [-3.50000e+00,  1.37400e+00,  2.11500e-01,  5.10900e-02, -1.03900e-02, -1.55600e-02,  2.87200e-04,  2.35300e-03],
                           [-2.81400e+00,  2.03800e-01,  6.82000e-02,  2.74700e-02,  1.16100e-02, -4.65500e-03, -1.70000e-03,  3.88000e-04],
                           [-1.43700e+00, -1.79900e-01, -4.15800e-03,  8.85500e-04,  9.90700e-03,  3.76500e-03, -3.58900e-04, -2.16800e-04],
                           [-7.45700e-01, -1.59500e-01, -8.88200e-02,  3.83600e-03,  5.92700e-03,  2.80800e-03,  1.77400e-03, -1.62300e-04],
                           [-3.41300e-01, -1.21800e-01, -8.00600e-02, -8.68100e-03,  1.21500e-03,  1.03500e-03,  1.74300e-03,  1.28000e-04],
                           [-1.19900e-01, -7.52800e-02, -3.54600e-02, -1.62700e-02, -3.18800e-03,  1.14300e-03,  2.62100e-04, -2.03700e-05],
                           [-9.04700e-03, -3.00300e-02,  7.43900e-03, -1.50400e-02, -4.55600e-03,  1.06500e-03, -6.65000e-04, -3.07300e-05],
                           [-2.79400e-02,  8.38200e-02, -1.92700e-02,  2.57900e-03, -1.84400e-04, -2.40300e-03,  6.76400e-05, -2.40700e-05],
                           [ 3.10200e-02,  2.38700e-03,  3.21800e-02,  1.00400e-03, -2.60000e-03, -2.04200e-05, -3.23600e-04, -1.67300e-04]])

# Reaction 2
chebyshev_reaction('aQOOHg (+ M) <=> aQOOHb (+ M)',
                   Tmin=180.0, Tmax=1500.0,
                   Pmin=(0.01, 'atm'), Pmax=(98.692, 'atm'),
                   coeffs=[[-4.92600e+00,  2.56700e+00, -3.59100e-01, -4.02700e-02, -7.45500e-03, -1.87000e-04,  5.71900e-03, -1.48300e-03],
                           [-3.38400e+00,  1.47300e+00,  7.46000e-01, -3.01700e-02, -4.23100e-02, -1.17200e-04, -1.04100e-03,  2.24000e-03],
                           [-2.99400e+00, -3.58900e-01, -3.66500e-02,  9.79400e-02,  2.89600e-02, -4.57000e-04, -4.14900e-03, -1.39400e-03],
                           [-1.62900e+00, -3.40800e-01, -1.69700e-01,  1.73600e-02,  1.41900e-02,  3.69600e-03,  2.32300e-03, -5.90300e-04],
                           [-7.81000e-01, -1.85400e-01, -5.98500e-02,  4.64600e-03, -2.48600e-04, -2.83000e-03,  5.43400e-04,  9.96800e-04],
                           [-3.73000e-01, -1.01400e-01, -4.35100e-02, -5.13800e-04,  4.71500e-03, -1.22700e-04, -1.01200e-03, -1.94300e-07],
                           [-1.30700e-01, -2.93400e-02, -5.41500e-02, -1.22300e-02,  1.95800e-03,  1.14400e-03,  8.28400e-04,  5.72600e-05],
                           [ 1.96200e-02, -1.07500e-02, -4.20200e-03, -1.64100e-02, -5.35200e-03,  8.17500e-04,  2.37200e-04,  2.27900e-04],
                           [ 1.46300e-02,  4.98600e-02,  3.96300e-03, -2.74500e-03, -3.21300e-03, -1.57000e-03, -8.65800e-05,  4.99900e-05],
                           [-1.66400e-02,  4.18700e-02,  6.32500e-03,  2.82100e-03, -2.43800e-04, -9.57500e-04,  2.16300e-05, -2.63200e-06]])

# Reaction 3
chebyshev_reaction('aRO2 (+ M) <=> aQOOHb (+ M)',
                   Tmin=180.0, Tmax=1500.0,
                   Pmin=(0.01, 'atm'), Pmax=(98.692, 'atm'),
                   coeffs=[[-7.32000e+00,  3.01600e+00, -5.78800e-01,  6.67000e-02,  3.60000e-02, -2.90400e-02,  5.62200e-03,  2.97900e-03],
                           [ 5.07800e+00,  6.36900e-01,  8.04100e-01, -1.49700e-01, -5.36700e-02,  3.09000e-02, -4.15900e-03, -1.38700e-03],
                           [-2.56800e+00,  1.22800e-01,  1.57900e-01,  6.76600e-02, -1.63400e-02, -1.04600e-03,  1.87600e-03, -1.26600e-03],
                           [-1.59400e+00, -2.90500e-01, -8.57200e-02,  4.80200e-02,  2.39300e-02, -1.45200e-03, -2.14500e-03, -4.37400e-04],
                           [-8.43100e-01, -3.51600e-01, -1.27400e-01,  1.11000e-02,  1.71300e-02,  2.37000e-03, -9.65900e-04, -3.61100e-04],
                           [-3.80000e-01, -1.78800e-01, -8.72200e-02, -1.41900e-02,  3.68000e-03,  1.51600e-03,  2.91400e-04,  2.85800e-04],
                           [-1.70000e-01,  3.47100e-04, -4.47900e-02, -1.68800e-02, -3.47600e-03, -7.71600e-04,  6.73300e-04,  5.07600e-04],
                           [ 1.20800e-02,  2.18400e-02,  7.35100e-03, -1.06700e-02, -7.13200e-03, -4.46900e-04,  5.31500e-04,  6.13000e-05],
                           [-3.58800e-04,  5.80000e-02,  9.67000e-03, -7.66100e-04, -3.30500e-03, -1.16800e-03,  1.47900e-04, -2.57800e-06],
                           [-1.04500e-02,  5.37200e-02,  1.02800e-02,  1.94000e-03,  1.11800e-03, -1.04200e-03, -4.55900e-04,  1.02900e-04]])

# Reaction 4
chebyshev_reaction('aadduct (+ M) <=> aQOOHb (+ M)',
                   Tmin=180.0, Tmax=1500.0,
                   Pmin=(0.01, 'atm'), Pmax=(98.692, 'atm'),
                   coeffs=[[-9.54900e+00,  3.17300e+00, -5.68100e-01,  3.06800e-02,  7.33500e-03, -3.40700e-02,  9.93500e-03,  5.65500e-03],
                           [-1.27900e+00,  2.07200e-01,  6.07900e-01, -1.53600e-01, -2.53700e-02,  4.13000e-02, -6.19800e-03, -4.24000e-03],
                           [-3.22400e+00,  2.15200e-01,  1.78100e-01,  7.36500e-02, -1.85700e-02, -2.16000e-03,  2.48500e-03, -9.16900e-04],
                           [-1.78300e+00, -2.13300e-01, -6.16300e-02,  5.48800e-02,  2.34800e-02, -2.53700e-03, -2.17700e-03, -4.15400e-04],
                           [-9.30400e-01, -3.19500e-01, -1.16400e-01,  1.41800e-02,  1.66600e-02,  1.09600e-03, -1.14200e-03, -1.38300e-04],
                           [-3.32400e-01, -1.74000e-01, -8.61300e-02, -1.35700e-02,  4.39400e-03,  1.25400e-03,  1.11300e-04,  3.11300e-04],
                           [-1.58700e-01,  1.09900e-02, -4.04300e-02, -1.64500e-02, -3.02300e-03, -6.92900e-04,  6.92400e-04,  5.08000e-04],
                           [ 1.15700e-02,  1.52000e-02,  4.70000e-03, -1.15800e-02, -6.59400e-03, -2.99800e-04,  4.27400e-04, -1.65100e-05],
                           [-1.51200e-01,  6.72400e-02,  1.54200e-02,  4.16800e-04, -3.33100e-03, -1.47000e-03,  8.39900e-05,  6.91500e-05],
                           [ 3.98300e-02,  4.87800e-02,  8.15600e-03,  9.88900e-04,  1.34400e-03, -8.47400e-04, -4.70100e-04,  4.40900e-05]])

# Reaction 5
chebyshev_reaction('O2 + aR (+ M) <=> aQOOHb (+ M)',
                   Tmin=180.0, Tmax=1500.0,
                   Pmin=(0.01, 'atm'), Pmax=(98.692, 'atm'),
                   coeffs=[[ 4.47700e+00,  4.94200e+00, -1.55000e+00,  1.33800e-01,  5.75400e-02, -4.44100e-02,  7.59900e-03,  3.32300e-03],
                           [-2.35800e+00,  5.98500e-01,  1.28500e+00, -4.29400e-01, -4.37300e-03,  5.79500e-02, -1.74300e-02, -2.49900e-03],
                           [-1.45800e+00, -4.34800e-02,  4.69900e-01,  2.89400e-02, -6.56500e-02,  8.89400e-03,  6.65300e-03, -2.20700e-03],
                           [-9.14300e-01, -3.38000e-01,  1.38600e-01,  7.48000e-02, -1.73100e-02, -6.78800e-03,  2.31700e-03, -1.07500e-04],
                           [-4.88500e-01, -2.96600e-01, -1.33300e-02,  4.06800e-02,  5.89100e-03, -3.05200e-03, -1.65800e-04, -3.30300e-04],
                           [-2.27500e-01, -1.71700e-01, -5.12000e-02,  8.04200e-03,  6.89100e-03,  8.03400e-04,  1.41800e-04, -2.99700e-04],
                           [-7.73200e-02, -6.37000e-02, -4.27200e-02, -8.55000e-03,  1.88700e-03,  1.52700e-03,  6.98400e-04,  6.05600e-05],
                           [-1.47000e-02,  3.63000e-03, -1.70500e-02, -1.05400e-02, -2.29800e-03,  3.98800e-04,  5.83800e-04,  2.21800e-04],
                           [ 1.78100e-02,  2.45700e-02,  1.02200e-03, -6.12400e-03, -3.45900e-03, -5.29300e-04,  3.39600e-04,  2.16900e-04],
                           [ 7.79000e-03,  2.67300e-02,  1.24300e-02,  9.30300e-04, -2.33700e-03, -1.20800e-03, -1.48700e-04,  1.03600e-04]])
#  aQOOHb(+M) <=> aQOOH[O](+M)                         1.000e+00 0.000     0.000
#      TCHEB/ 180.000   1500.000 /
#      PCHEB/ 0.010     98.692   /
#      CHEB/ 10 8/
#      CHEB/ -1.163e+01   1.870e+00    -8.158e-02   1.249e-02    -1.179e-02  /
#      CHEB/ 3.713e-03    -4.891e-04   -1.108e-04   2.908e+00    1.374e+00   /
#      CHEB/ 2.115e-01    5.109e-02    -1.039e-02   -1.556e-02   2.872e-04   /
#      CHEB/ 2.353e-03    -2.736e+00   2.038e-01    6.820e-02    2.747e-02   /
#      CHEB/ 1.161e-02    -4.655e-03   -1.700e-03   3.880e-04    -1.391e+00  /
#      CHEB/ -1.799e-01   -4.158e-03   8.855e-04    9.907e-03    3.765e-03   /
#      CHEB/ -3.589e-04   -2.168e-04   -7.303e-01   -1.595e-01   -8.882e-02  /
#      CHEB/ 3.836e-03    5.927e-03    2.808e-03    1.774e-03    -1.623e-04  /
#      CHEB/ -3.366e-01   -1.218e-01   -8.006e-02   -8.681e-03   1.215e-03   /
#      CHEB/ 1.035e-03    1.743e-03    1.280e-04    -1.181e-01   -7.528e-02  /
#      CHEB/ -3.546e-02   -1.627e-02   -3.188e-03   1.143e-03    2.621e-04   /
#      CHEB/ -2.037e-05   -8.331e-03   -3.003e-02   7.439e-03    -1.504e-02  /
#      CHEB/ -4.556e-03   1.065e-03    -6.650e-04   -3.073e-05   -2.775e-02  /
#      CHEB/ 8.382e-02    -1.927e-02   2.579e-03    -1.844e-04   -2.403e-03  /
#      CHEB/ 6.764e-05    -2.407e-05   3.103e-02    2.387e-03    3.218e-02   /
#      CHEB/ 1.004e-03    -2.600e-03   -2.042e-05   -3.236e-04   -1.673e-04  /

# Reaction 6
chebyshev_reaction('aQOOHg (+ M) <=> aQOOH[O] (+ M)',
                   Tmin=180.0, Tmax=1500.0,
                   Pmin=(0.01, 'atm'), Pmax=(98.692, 'atm'),
                   coeffs=[[-7.23300e+00,  5.16900e+00, -1.10100e+00, -1.25200e-01,  1.69200e-01, -1.61200e-02, -2.09700e-02,  7.38000e-03],
                           [-2.17000e+00, -2.35200e+00,  9.82200e-01,  1.34300e-01, -1.61800e-01,  2.67900e-02,  1.83300e-02, -9.89300e-03],
                           [-3.51000e+00, -6.23000e-01, -1.40900e-01,  6.51700e-02,  4.55200e-03, -7.41500e-03,  4.19900e-03, -3.88600e-04],
                           [-1.41100e+00, -5.85000e-02, -8.06700e-02, -2.99400e-02, -6.89000e-03, -8.35400e-04,  2.79200e-03,  1.11900e-03],
                           [-7.26000e-01,  2.25200e-01, -2.47100e-02, -1.38700e-02, -6.18800e-04, -5.51500e-03, -1.02700e-03,  1.61900e-03],
                           [-3.56300e-01,  1.05700e-01, -1.89900e-02, -1.84400e-03,  6.94900e-03, -1.77000e-03, -1.25500e-03,  1.55500e-04],
                           [-8.11300e-02, -5.20200e-02, -2.25600e-03, -6.99200e-03, -1.57200e-03,  2.44100e-03,  4.99100e-04, -3.53300e-04],
                           [ 4.67300e-02, -7.79700e-02,  2.33200e-02, -4.86000e-03, -6.31400e-03,  1.45100e-03, -4.81800e-05, -1.89900e-04],
                           [-8.94300e-02,  1.23100e-01, -2.72700e-02,  1.49100e-03,  5.33300e-03, -2.37200e-03, -4.76600e-04,  1.01500e-04],
                           [ 3.66200e-02, -6.31200e-02,  2.42300e-02,  4.46800e-03, -1.88900e-03,  2.01400e-03,  3.77000e-04, -5.70600e-04]])

# Reaction 7
chebyshev_reaction('aRO2 (+ M) <=> aQOOH[O] (+ M)',
                   Tmin=180.0, Tmax=1500.0,
                   Pmin=(0.01, 'atm'), Pmax=(98.692, 'atm'),
                   coeffs=[[-1.18400e+01,  6.20600e+00, -1.21200e+00, -2.03300e-01,  1.80100e-01, -1.49600e-03, -2.73600e-02,  5.16200e-03],
                           [ 8.07200e+00, -1.99700e+00,  1.11300e+00,  4.42700e-02, -1.76700e-01,  3.22400e-02,  2.48500e-02, -1.09800e-02],
                           [-3.12200e+00, -3.81300e-01, -3.45900e-02,  7.91500e-02, -6.63400e-03, -1.51200e-02,  4.16600e-03,  2.38100e-03],
                           [-1.53300e+00, -2.15100e-01, -6.16800e-02,  1.45900e-02,  8.16800e-03, -2.37200e-03, -2.13200e-03,  1.18700e-03],
                           [-6.72600e-01, -1.14700e-01, -5.99800e-02,  4.06700e-03,  6.68900e-03, -2.55200e-03,  2.87600e-04,  3.70500e-04],
                           [-3.00300e-01, -8.08500e-03, -2.88000e-02, -9.73200e-03,  3.38400e-04,  6.08300e-04,  2.94800e-04, -1.48500e-04],
                           [-1.12000e-01,  1.34000e-02, -6.49400e-04, -3.90000e-03, -3.96200e-03,  1.64100e-04,  1.34700e-04,  5.66800e-05],
                           [-5.40900e-02,  3.45500e-02,  2.37900e-02, -1.13900e-02, -4.74300e-04,  1.60600e-03, -1.16500e-03, -3.90700e-05],
                           [ 1.26000e-03,  2.47500e-02, -1.40100e-02,  1.46000e-02,  1.22900e-03, -3.75800e-03,  8.54700e-04,  2.45900e-04],
                           [-9.16000e-03,  5.84900e-04,  1.91600e-02, -2.92400e-03, -6.88100e-04,  2.47800e-03, -5.30500e-04, -4.89800e-04]])

# Reaction 8
chebyshev_reaction('aadduct (+ M) <=> aQOOH[O] (+ M)',
                   Tmin=180.0, Tmax=1500.0,
                   Pmin=(0.01, 'atm'), Pmax=(98.692, 'atm'),
                   coeffs=[[-1.40700e+01,  6.36400e+00, -1.20200e+00, -2.38900e-01,  1.51400e-01, -6.55200e-03, -2.30500e-02,  7.84200e-03],
                           [ 1.71500e+00, -2.42300e+00,  9.14400e-01,  4.11200e-02, -1.48500e-01,  4.26100e-02,  2.28100e-02, -1.38300e-02],
                           [-3.77800e+00, -2.86500e-01, -1.61900e-02,  8.58600e-02, -8.95000e-03, -1.62500e-02,  4.76200e-03,  2.73900e-03],
                           [-1.72400e+00, -1.35900e-01, -3.91000e-02,  2.20500e-02,  7.66200e-03, -3.48000e-03, -2.17200e-03,  1.21400e-03],
                           [-7.60400e-01, -8.09300e-02, -5.02100e-02,  7.62800e-03,  6.17500e-03, -3.85000e-03,  1.07600e-04,  5.95700e-04],
                           [-2.53100e-01, -2.01900e-03, -2.87200e-02, -8.69700e-03,  9.97900e-04,  3.39800e-04,  1.05600e-04, -1.20100e-04],
                           [-1.00900e-01,  2.50200e-02,  2.90200e-03, -3.11300e-03, -3.57100e-03,  2.47800e-04,  1.43100e-04,  5.95400e-05],
                           [-5.47000e-02,  2.85800e-02,  2.05500e-02, -1.20400e-02,  2.67700e-05,  1.74900e-03, -1.27300e-03, -1.17500e-04],
                           [-1.49600e-01,  3.44400e-02, -8.69100e-03,  1.59700e-02,  1.18400e-03, -4.06800e-03,  7.91000e-04,  3.15900e-04],
                           [ 4.11500e-02, -4.01200e-03,  1.67000e-02, -3.71500e-03, -4.89300e-04,  2.67400e-03, -5.48200e-04, -5.48500e-04]])

# Reaction 9
chebyshev_reaction('O2 + aR (+ M) <=> aQOOH[O] (+ M)',
                   Tmin=180.0, Tmax=1500.0,
                   Pmin=(0.01, 'atm'), Pmax=(98.692, 'atm'),
                   coeffs=[[-2.17600e+00,  6.32700e+00,  1.00700e+00, -5.67400e-01, -3.49300e-01,  1.15700e-01,  1.16600e-01, -3.53800e-02],
                           [-1.75300e+00, -1.86800e+00, -3.18200e-01,  5.80300e-01,  2.82200e-01, -1.73800e-01, -1.28200e-01,  5.89000e-02],
                           [-1.23400e+00, -1.86700e-01, -1.07600e-01,  2.86600e-02,  5.84100e-02,  2.44600e-02, -6.49500e-03, -1.66700e-02],
                           [-6.68800e-01, -4.52900e-02, -6.52500e-02, -2.69100e-02,  1.20100e-02,  2.00300e-02,  4.06700e-03, -6.96100e-03],
                           [-2.81000e-01, -5.41300e-02, -6.25200e-02, -2.28300e-02,  3.60900e-03,  6.38900e-03,  3.08600e-03,  2.95900e-04],
                           [-1.44400e-01, -3.70800e-02, -2.44400e-02, -5.16600e-03, -7.52200e-03, -4.09700e-03,  4.33500e-03,  2.69300e-03],
                           [-6.39400e-02, -4.36500e-03, -1.96500e-02, -8.63800e-03,  2.97400e-04,  1.56500e-03, -1.00100e-03, -1.40100e-03],
                           [-5.17100e-02,  9.80600e-03,  4.64300e-03,  1.16700e-03, -2.55800e-03, -2.91100e-03, -3.68400e-04,  1.47600e-03],
                           [ 3.09300e-02, -1.36300e-02, -5.53500e-03, -6.87600e-04,  2.12800e-03,  2.98900e-03,  1.86500e-04, -1.96900e-03],
                           [-2.54200e-02,  1.83500e-02,  7.15200e-03,  2.20900e-03, -4.31300e-05, -9.15800e-04, -4.35800e-04,  4.87700e-04]])
#  aQOOHb(+M) <=> aQOOHg(+M)                           1.000e+00 0.000     0.000
#      TCHEB/ 180.000   1500.000 /
#      PCHEB/ 0.010     98.692   /
#      CHEB/ 10 8/
#      CHEB/ -1.114e+01   2.567e+00    -3.591e-01   -4.027e-02   -7.455e-03  /
#      CHEB/ -1.870e-04   5.719e-03    -1.483e-03   2.973e-01    1.473e+00   /
#      CHEB/ 7.460e-01    -3.017e-02   -4.231e-02   -1.172e-04   -1.041e-03  /
#      CHEB/ 2.240e-03    -2.771e+00   -3.589e-01   -3.665e-02   9.794e-02   /
#      CHEB/ 2.896e-02    -4.570e-04   -4.149e-03   -1.394e-03   -1.534e+00  /
#      CHEB/ -3.408e-01   -1.697e-01   1.736e-02    1.419e-02    3.696e-03   /
#      CHEB/ 2.323e-03    -5.903e-04   -7.528e-01   -1.854e-01   -5.985e-02  /
#      CHEB/ 4.646e-03    -2.486e-04   -2.830e-03   5.434e-04    9.968e-04   /
#      CHEB/ -3.652e-01   -1.014e-01   -4.351e-02   -5.138e-04   4.715e-03   /
#      CHEB/ -1.227e-04   -1.012e-03   -1.943e-07   -1.281e-01   -2.934e-02  /
#      CHEB/ -5.415e-02   -1.223e-02   1.958e-03    1.144e-03    8.284e-04   /
#      CHEB/ 5.726e-05    2.035e-02    -1.075e-02   -4.202e-03   -1.641e-02  /
#      CHEB/ -5.352e-03   8.175e-04    2.372e-04    2.279e-04    1.465e-02   /
#      CHEB/ 4.986e-02    3.963e-03    -2.745e-03   -3.213e-03   -1.570e-03  /
#      CHEB/ -8.658e-05   4.999e-05    -1.678e-02   4.187e-02    6.325e-03   /
#      CHEB/ 2.821e-03    -2.438e-04   -9.575e-04   2.163e-05    -2.632e-06  /
#  aQOOH[O](+M) <=> aQOOHg(+M)                         1.000e+00 0.000     0.000
#      TCHEB/ 180.000   1500.000 /
#      PCHEB/ 0.010     98.692   /
#      CHEB/ 10 8/
#      CHEB/ -3.572e+00   5.169e+00    -1.101e+00   -1.252e-01   1.692e-01   /
#      CHEB/ -1.612e-02   -2.097e-02   7.380e-03    -4.896e+00   -2.352e+00  /
#      CHEB/ 9.822e-01    1.343e-01    -1.618e-01   2.679e-02    1.833e-02   /
#      CHEB/ -9.893e-03   -3.365e+00   -6.230e-01   -1.409e-01   6.517e-02   /
#      CHEB/ 4.552e-03    -7.415e-03   4.199e-03    -3.886e-04   -1.362e+00  /
#      CHEB/ -5.850e-02   -8.067e-02   -2.994e-02   -6.890e-03   -8.354e-04  /
#      CHEB/ 2.792e-03    1.119e-03    -7.131e-01   2.252e-01    -2.471e-02  /
#      CHEB/ -1.387e-02   -6.188e-04   -5.515e-03   -1.027e-03   1.619e-03   /