units(length='cm', time='s', quantity='mol', act_energy='kcal/mol')

ideal_gas(name='gas',
          elements="H D T C Ci O Oi N Ne Ar He Si S F Cl Br I X",
          species="""aOOHbalkene      OH               ibutanal
                     aR               performic_acid   disub_c4ether
                     aQOOHb           H                aadduct
                     trisub_epoxy     ibutenol         aQOOH[O]
                     ipropyl          aRO2             O2
                     formic_acid      propene          aQOOHg
                     ibut_peroxyacid  HO2              CH3""",
          reactions='all',
          initial_state=state(temperature=300.0, pressure=OneAtm))

#-------------------------------------------------------------------------------
# Element data
#-------------------------------------------------------------------------------

element(symbol='Ci', atomic_mass=13.003)
element(symbol='D', atomic_mass=2.014)
element(symbol='Oi', atomic_mass=18.0)
element(symbol='T', atomic_mass=3.016)
element(symbol='X', atomic_mass=195.083)
#-------------------------------------------------------------------------------
# Species data
#-------------------------------------------------------------------------------

species(name='aOOHbalkene',
        atoms='C:3 H:6 O:3',
        thermo=(NASA([10.00, 497.41],
                     [ 3.76691735E+00,  1.51417956E-02,  1.85499431E-04,
                      -4.61303214E-07,  3.27678941E-10, -2.93354832E+04,
                       1.09903968E+01]),
                NASA([497.41, 3000.00],
                     [ 6.20882781E+00,  4.08866173E-02, -2.89934946E-05,
                       9.60428979E-09, -1.19355432E-12, -3.01398125E+04,
                      -4.72842811E+00])))

species(name='OH',
        atoms='H:1 O:1',
        thermo=(NASA([10.00, 984.14],
                     [ 3.49686242E+00,  1.83973160E-04, -9.97634499E-07,
                       1.56942783E-09, -6.10128175E-13,  3.41673934E+03,
                       1.48093120E+00]),
                NASA([984.14, 3000.00],
                     [ 3.45221464E+00, -2.95124034E-04,  7.39418622E-07,
                      -2.89309866E-10,  3.53041498E-14,  3.45751599E+03,
                       1.85813897E+00])))

species(name='ibutanal',
        atoms='C:4 H:8 O:1',
        thermo=(NASA([10.00, 683.88],
                     [ 3.57157346E+00,  3.36936906E-02, -1.78475021E-05,
                       1.31946716E-08, -7.58008388E-12, -2.72685932E+04,
                       1.05595084E+01]),
                NASA([683.88, 3000.00],
                     [ 1.29043622E+00,  4.14804229E-02, -2.27411206E-05,
                       6.08619500E-09, -6.38995128E-13, -2.68266740E+04,
                       2.16477430E+01])))

species(name='aR',
        atoms='C:4 H:9 O:1',
        thermo=(NASA([10.00, 455.22],
                     [ 3.59625500E+00,  3.38947981E-02,  7.37257079E-06,
                      -3.99275335E-08,  2.49019944E-11, -1.75236406E+04,
                       1.18269265E+01]),
                NASA([455.22, 3000.00],
                     [ 2.49586309E+00,  4.35639890E-02, -2.44887770E-05,
                       6.73363769E-09, -7.23862433E-13, -1.74234574E+04,
                       1.62696907E+01])))

species(name='performic_acid',
        atoms='C:1 H:2 O:3',
        thermo=(NASA([10.00, 590.95],
                     [ 3.92633851E+00,  4.24517168E-03,  6.71106764E-05,
                      -1.36545385E-07,  8.03337864E-11, -3.63028176E+04,
                       8.06485813E+00]),
                NASA([590.95, 3000.00],
                     [ 4.39992934E+00,  1.85411415E-02, -1.36005501E-05,
                       4.62292431E-09, -5.88463603E-13, -3.66643888E+04,
                       3.44353230E+00])))

species(name='disub_c4ether',
        atoms='C:4 H:8 O:2',
        thermo=(NASA([10.00, 413.50],
                     [ 3.78241323E+00,  1.89501763E-02,  8.65302396E-05,
                      -1.80580575E-07,  1.13656264E-10, -3.80169031E+04,
                       1.09982450E+01]),
                NASA([413.50, 3000.00],
                     [ 4.29420885E-01,  5.13851903E-02, -3.11292293E-05,
                       9.11498284E-09, -1.03192718E-12, -3.77396087E+04,
                       2.42134976E+01])))

species(name='aQOOHb',
        atoms='C:4 H:9 O:3',
        thermo=(NASA([10.00, 412.78],
                     [ 3.15498836E+00,  8.55068303E-02, -2.35307993E-04,
                       4.71983261E-07, -3.62709267E-10, -2.99925588E+04,
                       1.52522123E+01]),
                NASA([412.78, 3000.00],
                     [ 4.18099845E+00,  5.26168288E-02, -3.23998410E-05,
                       9.59389339E-09, -1.09464519E-12, -2.98817639E+04,
                       1.35782328E+01])))

species(name='H',
        atoms='H:1',
        thermo=(NASA([10.00, 794.01],
                     [ 2.50000000E+00,  1.99051163E-15, -1.19089508E-17,
                       2.10805655E-20, -1.11017699E-23,  2.54725594E+04,
                      -4.61279342E-01]),
                NASA([794.01, 3000.00],
                     [ 2.50000000E+00,  1.52667235E-14, -1.58445285E-17,
                       6.63088600E-21, -9.62111674E-25,  2.54725594E+04,
                      -4.61279342E-01])))

species(name='aadduct',
        atoms='C:4 H:9 O:3',
        thermo=(NASA([10.00, 449.84],
                     [ 3.06901904E+00,  9.20724491E-02, -2.68085092E-04,
                       5.15249897E-07, -3.68046586E-10, -3.11724776E+04,
                       1.46591735E+01]),
                NASA([449.84, 3000.00],
                     [ 4.11210745E+00,  5.16955724E-02, -2.97401041E-05,
                       8.32758939E-09, -9.08861448E-13, -3.09516366E+04,
                       1.39578825E+01])))

species(name='trisub_epoxy',
        atoms='C:4 H:8 O:2',
        thermo=(NASA([10.00, 209.19],
                     [ 3.75295042E+00,  2.37546930E-02,  1.26610110E-04,
                      -4.78364365E-07,  5.79468168E-10, -4.12576018E+04,
                       1.12739684E+01]),
                NASA([209.19, 3000.00],
                     [ 2.64185254E+00,  4.50006531E-02, -2.57361066E-05,
                       7.15266054E-09, -7.72980731E-13, -4.12111163E+04,
                       1.48960343E+01])))

species(name='ibutenol',
        atoms='C:4 H:8 O:1',
        thermo=(NASA([10.00, 135.97],
                     [ 3.95714996E+00,  5.72646980E-03,  4.63611760E-04,
                      -3.04137514E-06,  6.85019471E-09, -2.46849415E+04,
                       8.21931848E+00]),
                NASA([135.97, 3000.00],
                     [ 3.32467612E+00,  3.69033556E-02, -1.89960416E-05,
                       4.73417677E-09, -4.59705291E-13, -2.46793629E+04,
                       9.58133237E+00])))

species(name='aQOOH[O]',
        atoms='C:4 H:9 O:3',
        thermo=(NASA([10.00, 488.36],
                     [ 3.54559533E+00,  3.89536133E-02,  8.47689703E-05,
                      -2.45147486E-07,  1.76157259E-10, -2.19325711E+04,
                       1.34685910E+01]),
                NASA([488.36, 3000.00],
                     [ 3.94214913E+00,  5.71928314E-02, -3.72516212E-05,
                       1.15209013E-08, -1.35808341E-12, -2.22275321E+04,
                       9.21628964E+00])))

species(name='ipropyl',
        atoms='C:3 H:7',
        thermo=(NASA([10.00, 421.76],
                     [ 3.73943775E+00,  3.10070157E-02, -1.51196908E-04,
                       4.35367329E-07, -3.85565052E-10,  9.49213457E+03,
                       7.79448918E+00]),
                NASA([421.76, 3000.00],
                     [-4.74526725E-01,  3.20862468E-02, -1.67340747E-05,
                       4.21365136E-09, -4.13155573E-13,  1.01934458E+04,
                       2.85865912E+01])))

species(name='aRO2',
        atoms='C:4 H:9 O:3',
        thermo=(NASA([10.00, 670.36],
                     [ 3.45405325E+00,  4.74751311E-02,  9.77507759E-06,
                      -6.31019603E-08,  3.75500067E-11, -3.37806721E+04,
                       1.39284976E+01]),
                NASA([670.36, 3000.00],
                     [ 5.04137652E+00,  5.19952978E-02, -3.16472789E-05,
                       9.22798587E-09, -1.03598915E-12, -3.43078646E+04,
                       4.56056770E+00])))

species(name='O2',
        atoms='O:2',
        thermo=(NASA([10.00, 605.96],
                     [ 3.50743498E+00, -4.43860349E-04,  1.45938058E-06,
                       1.61509333E-09, -2.32050052E-12, -9.24756224E+02,
                       4.72183634E+00]),
                NASA([605.96, 3000.00],
                     [ 2.87462882E+00,  2.17840991E-03, -1.18262921E-06,
                       2.86910493E-10, -2.53297146E-14, -8.19517838E+02,
                       7.69331810E+00])))

species(name='formic_acid',
        atoms='C:1 H:2 O:2',
        thermo=(NASA([10.00, 741.38],
                     [ 4.06855785E+00, -4.74562133E-03,  4.71797900E-05,
                      -6.07490052E-08,  2.51286794E-11, -4.66880837E+04,
                       6.53681035E+00]),
                NASA([741.38, 3000.00],
                     [ 1.13645847E+00,  1.74953124E-02, -1.08112403E-05,
                       3.08075326E-09, -3.34892658E-13, -4.64297918E+04,
                       1.86149484E+01])))

species(name='propene',
        atoms='C:3 H:6',
        thermo=(NASA([10.00, 519.53],
                     [ 3.98723879E+00,  4.72040503E-04,  6.51776229E-05,
                      -9.89891002E-08,  4.91141123E-11,  2.36156634E+03,
                       6.98071210E+00]),
                NASA([519.53, 3000.00],
                     [ 3.79893331E-01,  2.82457690E-02, -1.50108430E-05,
                       3.90894069E-09, -4.00521928E-13,  2.73639369E+03,
                       2.20218922E+01])))

species(name='aQOOHg',
        atoms='C:4 H:9 O:3',
        thermo=(NASA([10.00, 455.48],
                     [ 3.62522127E+00,  2.83222320E-02,  2.08527447E-04,
                      -5.67427418E-07,  4.35169138E-10, -2.53325737E+04,
                       1.26617758E+01]),
                NASA([455.48, 3000.00],
                     [ 5.13914202E+00,  5.96270859E-02, -4.14435328E-05,
                       1.34202375E-08, -1.63474553E-12, -2.59331301E+04,
                       1.46991116E+00])))

species(name='ibut_peroxyacid',
        atoms='C:4 H:8 O:3',
        thermo=(NASA([10.00, 1386.21],
                     [ 3.50995385E+00,  4.78670384E-02, -2.40781384E-05,
                       3.71046938E-09,  3.85442115E-13, -4.85073717E+04,
                       1.22017268E+01]),
                NASA([1386.21, 3000.00],
                     [ 1.24543146E+01,  3.02396862E-02, -1.38577031E-05,
                       3.05328904E-09, -2.63982457E-13, -5.17732550E+04,
                      -3.67061828E+01])))

species(name='HO2',
        atoms='H:1 O:2',
        thermo=(NASA([10.00, 891.11],
                     [ 4.02887004E+00, -1.75769289E-03,  1.08726004E-05,
                      -1.13812972E-08,  3.90113097E-12,  4.95165001E+02,
                       4.69302008E+00]),
                NASA([891.11, 3000.00],
                     [ 3.06571044E+00,  4.28505005E-03, -2.19325920E-06,
                       5.58882699E-10, -5.61246669E-14,  5.98557610E+02,
                       8.84564156E+00])))

species(name='CH3',
        atoms='C:1 H:3',
        thermo=(NASA([10.00, 616.77],
                     [ 3.98929952E+00,  5.45150461E-04,  9.01320092E-06,
                      -1.08320497E-08,  4.38985879E-12,  1.65859883E+04,
                       2.22446886E-01]),
                NASA([616.77, 3000.00],
                     [ 3.35928237E+00,  4.63117126E-03, -9.24365433E-07,
                      -9.02514624E-11,  3.56905106E-14,  1.66637014E+04,
                       2.95743732E+00])))

#-------------------------------------------------------------------------------
# Reaction data
#-------------------------------------------------------------------------------

# Reaction 1
chebyshev_reaction('aQOOH[O] (+ M) <=> aQOOHb (+ M)',
                   Tmin=180.0, Tmax=1500.0,
                   Pmin=(0.01, 'atm'), Pmax=(98.692, 'atm'),
                   coeffs=[[ 1.84800e+00,  2.00000e+00, -4.07500e-01, -1.88900e-02,  9.52500e-03,  3.18600e-03, -1.76400e-03, -5.07400e-04],
                           [ 1.28700e+00,  1.34800e+00,  1.04200e-01, -2.08900e-02, -4.53300e-03, -8.39600e-04,  3.37300e-03,  5.31400e-04],
                           [ 2.16700e-01,  3.47700e-01,  8.11000e-02, -1.83200e-02, -2.06800e-03, -6.79500e-04, -1.31200e-03,  7.95100e-04],
                           [ 2.87000e-02,  1.02800e-01,  6.84800e-02, -1.12000e-02, -9.76700e-03,  3.03700e-03,  6.37700e-04, -6.87800e-04],
                           [ 3.23700e-02,  3.14900e-02,  2.85900e-02, -8.12000e-04, -9.73000e-03, -1.25200e-04,  2.15300e-03, -9.22800e-06],
                           [ 5.14000e-02, -7.23000e-03, -2.59800e-04,  4.02700e-03, -2.90400e-03, -2.40700e-03,  6.80700e-04,  5.28400e-04],
                           [ 4.09400e-02, -2.54300e-02, -8.22800e-03,  3.67700e-03,  1.67200e-03, -1.61700e-03, -6.29800e-04,  3.04700e-04],
                           [ 1.93000e-02, -2.52200e-02, -6.64500e-03,  2.16000e-03,  2.19100e-03, -4.01700e-04, -7.34100e-04,  1.54300e-05],
                           [ 1.32200e-03, -1.49600e-02, -2.63000e-03,  2.08000e-03,  1.50300e-03, -3.48800e-05, -4.64500e-04, -7.69700e-05],
                           [-4.85600e-03, -4.65000e-03, -6.83000e-04,  9.55200e-04,  6.84700e-04,  1.03700e-04, -1.75600e-04, -8.79300e-05]])

# Reaction 2
chebyshev_reaction('aQOOHg (+ M) <=> aQOOHb (+ M)',
                   Tmin=180.0, Tmax=1500.0,
                   Pmin=(0.01, 'atm'), Pmax=(98.692, 'atm'),
                   coeffs=[[-4.24900e+00,  6.18200e-01, -4.57700e-01, -3.19000e-03,  1.34900e-02,  1.50500e-03, -7.06000e-04, -3.35600e-04],
                           [ 5.56100e+00,  2.07900e+00, -5.13700e-02, -3.59900e-02, -3.09700e-03, -1.37400e-03,  9.14000e-04,  5.49500e-04],
                           [-2.23400e-01,  6.18700e-01,  1.11400e-01, -2.82100e-02,  2.24000e-03,  1.04600e-03, -2.44700e-03,  1.32500e-04],
                           [-4.66600e-01,  2.52300e-01,  1.05100e-01, -2.44600e-02, -1.19900e-02,  5.12300e-03,  1.42200e-03, -1.08500e-03],
                           [-1.23000e-01,  7.66900e-02,  6.64300e-02,  2.44500e-03, -1.23000e-02, -1.40900e-03,  2.35700e-03,  2.73400e-04],
                           [-3.25000e-02,  4.31300e-03,  2.58400e-02,  9.91400e-03, -2.91800e-03, -2.59400e-03,  1.57100e-04,  5.18200e-04],
                           [-2.99000e-03, -7.12800e-03,  3.34300e-03,  6.47900e-03,  7.20300e-04, -9.96100e-04, -4.13700e-04,  9.53800e-05],
                           [ 1.06300e-02, -8.16600e-03, -2.38500e-03,  2.74500e-03,  9.61100e-04, -3.24400e-04, -2.40800e-04, -1.03900e-05],
                           [ 1.21300e-02, -6.46300e-03, -2.35300e-03,  6.35000e-04,  5.70300e-04, -8.53500e-05, -1.05200e-04, -7.02400e-06],
                           [ 9.79900e-03, -3.16900e-03, -1.59900e-03, -2.45600e-04,  9.48400e-05,  1.89500e-05,  2.45100e-05,  7.37600e-06]])

# Reaction 3
chebyshev_reaction('aRO2 (+ M) <=> aQOOHb (+ M)',
                   Tmin=180.0, Tmax=1500.0,
                   Pmin=(0.01, 'atm'), Pmax=(98.692, 'atm'),
                   coeffs=[[-4.32000e+00,  1.07800e+00, -1.91800e-01, -7.41400e-03,  9.39600e-03,  9.80800e-04, -7.26700e-04, -2.29500e-04],
                           [ 7.08900e+00,  1.60500e+00, -2.26100e-01, -2.52300e-02,  1.30500e-02,  2.40300e-03, -1.21200e-03, -3.17200e-04],
                           [ 6.35200e-01,  6.44300e-01, -1.68500e-03, -1.94800e-02, -7.44100e-04,  2.19700e-03, -2.24400e-04, -1.50200e-04],
                           [-1.48500e-01,  9.36800e-02,  7.14300e-02, -2.80800e-03, -6.64500e-03,  4.75100e-04,  6.44400e-04, -3.10500e-05],
                           [-2.71000e-01, -2.37700e-02,  5.19200e-02, -1.39700e-03, -4.46800e-03,  2.45500e-04,  6.77600e-04, -3.74400e-05],
                           [-1.80600e-01, -2.65800e-03,  2.61600e-02, -5.56600e-03, -2.80700e-03,  9.24000e-04,  6.04500e-04, -1.02300e-04],
                           [-7.17800e-02,  1.15100e-02,  8.45600e-03, -3.02800e-03, -2.08400e-03,  3.85000e-04,  5.57300e-04, -1.06600e-05],
                           [-1.20900e-02,  8.51700e-03, -3.18500e-03,  1.64700e-03, -6.25200e-04, -5.67900e-04,  2.30600e-04,  1.26300e-04],
                           [ 4.61500e-03,  2.18700e-03, -6.32400e-03,  2.87500e-03,  4.23100e-04, -6.96000e-04, -9.21900e-05,  1.22200e-04],
                           [ 5.01500e-03, -1.98800e-03, -3.37700e-03,  1.54200e-03,  3.41500e-04, -2.82900e-04, -1.48300e-04,  4.90700e-05]])

# Reaction 4
chebyshev_reaction('aadduct (+ M) <=> aQOOHb (+ M)',
                   Tmin=180.0, Tmax=1500.0,
                   Pmin=(0.01, 'atm'), Pmax=(98.692, 'atm'),
                   coeffs=[[-6.09800e+00, -2.58600e-01, -3.65900e-02, -2.14300e-02,  4.09700e-03,  3.64700e-03, -1.80800e-03,  1.40900e-04],
                           [ 2.34900e+00,  2.47600e+00, -9.65600e-02, -6.65700e-02,  1.90600e-02,  2.28800e-03, -1.55100e-03,  1.08500e-04],
                           [-1.81900e-01,  1.24000e+00, -1.50800e-01, -2.90200e-02,  1.36300e-02, -1.24500e-03,  1.82600e-05, -1.83200e-04],
                           [ 1.84700e-01,  3.55500e-01, -1.19100e-01,  3.18000e-02, -1.87700e-03, -3.87900e-03,  2.16200e-03, -4.56800e-04],
                           [ 7.26700e-02, -1.21000e-01, -2.06700e-02,  5.51400e-02, -1.65100e-02, -3.61100e-03,  3.47100e-03, -1.24500e-04],
                           [-6.66600e-02, -2.18100e-01,  7.47600e-02,  2.90000e-02, -2.46400e-02,  3.94300e-03,  2.26200e-03, -1.20000e-03],
                           [-7.45100e-02, -1.05400e-01,  1.02400e-01, -1.70300e-02, -1.60800e-02,  9.69500e-03, -1.38800e-03, -9.96500e-04],
                           [-2.90800e-02,  2.22800e-02,  5.62300e-02, -4.04200e-02,  2.48800e-03,  6.89800e-03, -3.41300e-03,  6.30900e-04],
                           [ 2.08800e-03,  5.83800e-02, -3.60000e-03, -3.26300e-02,  1.80600e-02, -7.15200e-04, -3.82900e-03,  2.07900e-03],
                           [ 3.91400e-03,  3.03600e-02, -3.55300e-02, -4.03500e-03,  1.76500e-02, -7.22200e-03, -9.49400e-04,  1.62700e-03]])

# Reaction 5
chebyshev_reaction('O2 + aR (+ M) <=> aQOOHb (+ M)',
                   Tmin=180.0, Tmax=1500.0,
                   Pmin=(0.01, 'atm'), Pmax=(98.692, 'atm'),
                   coeffs=[[ 8.01400e+00,  4.26300e-01, -4.07200e-01, -1.28000e-02,  5.66100e-03,  2.33800e-03,  2.07600e-03, -6.68300e-04],
                           [ 4.04500e-02,  9.46100e-01,  1.05800e-01, -3.74700e-02,  3.91900e-03, -1.36300e-03, -2.48800e-03,  1.42400e-03],
                           [-1.65800e-02,  2.42700e-01,  6.70100e-02, -1.93400e-02, -4.41200e-03,  6.29200e-03, -1.65000e-04, -1.39000e-03],
                           [-6.24800e-02,  8.24500e-02,  4.18600e-02, -5.88700e-03, -1.15600e-02,  1.05400e-03,  2.87400e-03, -1.77200e-04],
                           [-2.40200e-02,  2.76400e-02,  2.16300e-02,  3.60900e-03, -6.35200e-03, -2.59100e-03,  1.42000e-03,  7.67200e-04],
                           [-7.19000e-03, -1.78300e-03,  5.56100e-03,  4.67100e-03, -8.16500e-04, -2.08400e-03, -1.20300e-04,  5.79700e-04],
                           [-4.62800e-04, -8.66000e-03, -7.04700e-04,  2.62300e-03,  8.53200e-04, -9.21900e-04, -5.35400e-04,  2.04900e-04],
                           [ 1.07100e-03, -5.70700e-03, -1.23300e-03,  1.18800e-03,  7.73400e-04, -3.08500e-04, -4.38600e-04, -1.37400e-05],
                           [ 1.68800e-03, -2.84300e-03, -6.50400e-04,  5.59700e-04,  5.00800e-04, -3.78700e-05, -2.55400e-04, -9.01800e-05],
                           [ 9.07800e-04,  1.26800e-04,  1.58600e-05,  1.47900e-04,  1.92200e-04,  5.08100e-05, -8.42800e-05, -7.37900e-05]])
#  aQOOHb(+M) <=> aQOOH[O](+M)                         1.000e+00 0.000     0.000
#      TCHEB/ 180.000   1500.000 /
#      PCHEB/ 0.010     98.692   /
#      CHEB/ 10 8/
#      CHEB/ -1.054e+01   2.000e+00    -4.075e-01   -1.889e-02   9.525e-03   /
#      CHEB/ 3.186e-03    -1.764e-03   -5.074e-04   9.665e+00    1.348e+00   /
#      CHEB/ 1.042e-01    -2.089e-02   -4.533e-03   -8.396e-04   3.373e-03   /
#      CHEB/ 5.314e-04    2.947e-01    3.477e-01    8.110e-02    -1.832e-02  /
#      CHEB/ -2.068e-03   -6.795e-04   -1.312e-03   7.951e-04    7.470e-02   /
#      CHEB/ 1.028e-01    6.848e-02    -1.120e-02   -9.767e-03   3.037e-03   /
#      CHEB/ 6.377e-04    -6.878e-04   4.775e-02    3.149e-02    2.859e-02   /
#      CHEB/ -8.120e-04   -9.730e-03   -1.252e-04   2.153e-03    -9.228e-06  /
#      CHEB/ 5.617e-02    -7.230e-03   -2.598e-04   4.027e-03    -2.904e-03  /
#      CHEB/ -2.407e-03   6.807e-04    5.284e-04    4.275e-02    -2.543e-02  /
#      CHEB/ -8.228e-03   3.677e-03    1.672e-03    -1.617e-03   -6.298e-04  /
#      CHEB/ 3.047e-04    2.001e-02    -2.522e-02   -6.645e-03   2.160e-03   /
#      CHEB/ 2.191e-03    -4.017e-04   -7.341e-04   1.543e-05    1.517e-03   /
#      CHEB/ -1.496e-02   -2.630e-03   2.080e-03    1.503e-03    -3.488e-05  /
#      CHEB/ -4.645e-04   -7.697e-05   -4.849e-03   -4.650e-03   -6.830e-04  /
#      CHEB/ 9.552e-04    6.847e-04    1.037e-04    -1.756e-04   -8.793e-05  /

# Reaction 6
chebyshev_reaction('aQOOHg (+ M) <=> aQOOH[O] (+ M)',
                   Tmin=180.0, Tmax=1500.0,
                   Pmin=(0.01, 'atm'), Pmax=(98.692, 'atm'),
                   coeffs=[[-2.69800e+00,  2.39900e+00, -1.31400e-01, -5.17900e-03, -8.88200e-04, -2.60500e-03, -1.19300e-04,  4.61800e-04],
                           [ 4.79200e+00,  1.11700e+00, -3.66500e-02, -1.15800e-02,  2.44500e-03,  3.99400e-03,  9.47400e-06, -9.08600e-04],
                           [ 1.81200e-01,  3.75600e-01,  4.50500e-03, -1.91300e-02, -4.32900e-03, -1.38000e-03,  4.84900e-04,  7.01900e-04],
                           [-2.73700e-01,  1.30800e-01,  7.98000e-02, -1.25700e-02, -6.68200e-03, -2.76600e-04, -1.40200e-05,  5.64900e-05],
                           [-1.62500e-01, -2.73200e-02,  4.75200e-02,  7.21300e-03, -3.09500e-03, -2.30500e-04,  3.77900e-05, -2.52800e-04],
                           [-1.91600e-02, -4.77200e-02,  4.28000e-03,  1.30400e-02,  1.87400e-04, -1.29100e-03, -1.42400e-05,  9.06500e-05],
                           [ 1.14400e-02, -2.36400e-02, -6.02500e-03,  7.94600e-03,  1.53800e-03, -1.07500e-03, -1.61000e-04,  1.05600e-04],
                           [-1.05500e-02,  6.85300e-03, -6.25100e-03, -4.42600e-04,  2.72300e-03,  2.87100e-04, -6.85900e-04, -4.97800e-05],
                           [ 1.09500e-02, -1.87300e-02, -2.14800e-03,  1.15900e-03,  1.01700e-04,  2.92300e-04,  4.05100e-04, -1.04300e-04],
                           [-9.67000e-03,  1.47100e-02, -4.10100e-03, -3.44700e-03,  1.13200e-03,  6.76600e-04, -3.53400e-04, -4.98300e-05]])

# Reaction 7
chebyshev_reaction('aRO2 (+ M) <=> aQOOH[O] (+ M)',
                   Tmin=180.0, Tmax=1500.0,
                   Pmin=(0.01, 'atm'), Pmax=(98.692, 'atm'),
                   coeffs=[[-7.58400e+00,  3.19200e+00, -3.23600e-01, -3.94300e-02,  1.78600e-02,  3.14400e-03, -3.16400e-03, -6.51500e-04],
                           [ 1.14500e+01,  4.92600e-01,  1.69600e-01,  4.81800e-03, -1.12200e-02,  2.53800e-03,  2.77100e-03, -5.73700e-04],
                           [-6.47900e-01,  7.59100e-02,  4.77300e-02,  1.31600e-02, -4.15200e-03, -3.61800e-03,  4.03000e-04,  9.92600e-04],
                           [-3.79100e-01,  8.52500e-02,  3.24500e-02,  3.11300e-03, -2.41600e-03, -1.03900e-03, -1.67800e-04,  5.50500e-05],
                           [-2.48100e-01,  6.44600e-02,  2.27800e-02,  6.12000e-04, -1.94100e-03,  6.36100e-05,  3.47500e-04, -6.16800e-05],
                           [-1.31800e-01,  2.14800e-02,  9.16800e-03,  1.27600e-03, -5.68300e-04, -6.61500e-05,  2.12200e-04,  6.47200e-05],
                           [-5.48200e-02, -2.11400e-03,  8.56700e-04,  1.30700e-03,  3.66300e-04, -1.22900e-04, -5.31700e-05,  4.23100e-05],
                           [-1.51600e-02, -7.01400e-03, -2.04600e-03,  3.15200e-04,  3.64700e-04,  2.61300e-05, -4.16600e-05, -7.66000e-06],
                           [-3.10100e-03, -7.46200e-03, -1.54900e-03,  8.42000e-04,  4.37200e-04, -1.22900e-04, -1.24400e-04,  6.94500e-06],
                           [ 5.91000e-03, -2.63600e-03, -1.28500e-03, -3.31800e-04,  1.27900e-06,  3.46700e-05,  1.52200e-05,  1.31600e-06]])

# Reaction 8
chebyshev_reaction('aadduct (+ M) <=> aQOOH[O] (+ M)',
                   Tmin=180.0, Tmax=1500.0,
                   Pmin=(0.01, 'atm'), Pmax=(98.692, 'atm'),
                   coeffs=[[-1.13200e+01,  3.19300e+00, -3.22400e-01, -3.87200e-02,  1.78700e-02,  2.99900e-03, -3.18000e-03, -6.14600e-04],
                           [ 8.39500e+00,  5.09100e-01,  1.76600e-01,  5.98700e-03, -1.15200e-02,  2.38000e-03,  2.76700e-03, -5.64600e-04],
                           [-7.59600e-01,  8.56500e-02,  5.17000e-02,  1.36900e-02, -4.32900e-03, -3.62100e-03,  4.53500e-04,  9.92100e-04],
                           [-2.77300e-01,  8.78300e-02,  3.37000e-02,  3.44700e-03, -2.40600e-03, -1.06800e-03, -1.72900e-04,  6.20400e-05],
                           [-1.24300e-01,  6.32600e-02,  2.27000e-02,  9.43900e-04, -1.78900e-03,  2.99300e-05,  3.04400e-04, -6.10600e-05],
                           [-6.75100e-02,  1.92300e-02,  8.59400e-03,  1.45400e-03, -4.33500e-04, -7.43400e-05,  1.88400e-04,  6.42800e-05],
                           [-3.39500e-02, -3.97800e-03,  2.28000e-04,  1.30400e-03,  4.25700e-04, -1.16800e-04, -5.62600e-05,  4.40100e-05],
                           [-1.20300e-02, -7.98700e-03, -2.51600e-03,  1.95400e-04,  3.71800e-04,  4.61300e-05, -3.50100e-05, -9.21500e-06],
                           [-6.16800e-03, -8.08800e-03, -1.86800e-03,  7.71600e-04,  4.57000e-04, -1.11500e-04, -1.30400e-04,  2.30200e-06],
                           [ 3.32600e-03, -2.67600e-03, -1.42100e-03, -4.19300e-04, -3.97900e-06,  5.12200e-05,  1.89000e-05, -2.10400e-06]])

# Reaction 9
chebyshev_reaction('O2 + aR (+ M) <=> aQOOH[O] (+ M)',
                   Tmin=180.0, Tmax=1500.0,
                   Pmin=(0.01, 'atm'), Pmax=(98.692, 'atm'),
                   coeffs=[[ 8.16000e+00,  1.64100e+00, -1.81100e-01, -4.85500e-02,  1.31200e-03,  5.41200e-03,  6.87500e-04, -8.41100e-04],
                           [-3.64500e-01,  3.20300e-01,  1.50100e-01,  3.06200e-02, -7.53000e-03, -5.69500e-03,  1.57800e-04,  1.13600e-03],
                           [-1.26400e-01,  2.50200e-02,  2.52800e-02,  1.66800e-02,  5.51400e-03, -6.04000e-04, -1.36600e-03, -3.56100e-04],
                           [-7.36800e-02,  1.98600e-02,  8.35600e-03,  1.52400e-03,  1.32800e-04,  3.78100e-04,  2.80100e-04,  3.51600e-07],
                           [-1.52600e-02,  1.13800e-02,  4.42500e-03,  5.50200e-05, -7.39900e-04, -1.51800e-04,  1.95300e-04,  1.32500e-04],
                           [ 3.19000e-03, -5.78900e-03, -2.30800e-03, -5.68200e-05,  4.25300e-04,  1.68900e-04, -2.52100e-05, -3.61700e-05],
                           [ 5.14700e-03, -9.47600e-03, -4.20800e-03, -5.54600e-04,  4.96800e-04,  2.81900e-04, -1.88100e-06, -5.77800e-05],
                           [ 3.39500e-03, -5.90000e-03, -2.80900e-03, -6.19700e-04,  1.05500e-04,  1.00600e-04,  5.81600e-06, -1.41400e-05],
                           [ 5.42000e-03, -2.13200e-03, -9.61100e-04, -2.03100e-04,  6.75200e-06,  1.82300e-06, -4.95600e-06,  4.53200e-06],
                           [-1.25500e-03,  2.51800e-04, -1.58900e-04, -3.10700e-04, -2.02500e-04, -5.51900e-05,  1.06800e-05,  1.31500e-05]])
#  aQOOHb(+M) <=> aQOOHg(+M)                           1.000e+00 0.000     0.000
#      TCHEB/ 180.000   1500.000 /
#      PCHEB/ 0.010     98.692   /
#      CHEB/ 10 8/
#      CHEB/ -1.223e+01   6.182e-01    -4.577e-01   -3.190e-03   1.349e-02   /
#      CHEB/ 1.505e-03    -7.060e-04   -3.356e-04   1.063e+01    2.079e+00   /
#      CHEB/ -5.137e-02   -3.599e-02   -3.097e-03   -1.374e-03   9.140e-04   /
#      CHEB/ 5.495e-04    -2.237e-04   6.187e-01    1.114e-01    -2.821e-02  /
#      CHEB/ 2.240e-03    1.046e-03    -2.447e-03   1.325e-04    -3.725e-01  /
#      CHEB/ 2.523e-01    1.051e-01    -2.446e-02   -1.199e-02   5.123e-03   /
#      CHEB/ 1.422e-03    -1.085e-03   -9.478e-02   7.669e-02    6.643e-02   /
#      CHEB/ 2.445e-03    -1.230e-02   -1.409e-03   2.357e-03    2.734e-04   /
#      CHEB/ -2.463e-02   4.313e-03    2.584e-02    9.914e-03    -2.918e-03  /
#      CHEB/ -2.594e-03   1.571e-04    5.182e-04    -4.798e-04   -7.128e-03  /
#      CHEB/ 3.343e-03    6.479e-03    7.203e-04    -9.961e-04   -4.137e-04  /
#      CHEB/ 9.538e-05    1.135e-02    -8.166e-03   -2.385e-03   2.745e-03   /
#      CHEB/ 9.611e-04    -3.244e-04   -2.408e-04   -1.039e-05   1.215e-02   /
#      CHEB/ -6.463e-03   -2.353e-03   6.350e-04    5.703e-04    -8.535e-05  /
#      CHEB/ -1.052e-04   -7.024e-06   9.657e-03    -3.169e-03   -1.599e-03  /
#      CHEB/ -2.456e-04   9.484e-05    1.895e-05    2.451e-05    7.376e-06   /
#  aQOOH[O](+M) <=> aQOOHg(+M)                         1.000e+00 0.000     0.000
#      TCHEB/ 180.000   1500.000 /
#      PCHEB/ 0.010     98.692   /
#      CHEB/ 10 8/
#      CHEB/ 1.700e+00    2.399e+00    -1.314e-01   -5.179e-03   -8.882e-04  /
#      CHEB/ -2.605e-03   -1.193e-04   4.618e-04    1.487e+00    1.117e+00   /
#      CHEB/ -3.665e-02   -1.158e-02   2.445e-03    3.994e-03    9.474e-06   /
#      CHEB/ -9.086e-04   3.264e-01    3.756e-01    4.505e-03    -1.913e-02  /
#      CHEB/ -4.329e-03   -1.380e-03   4.849e-04    7.019e-04    -2.255e-01  /
#      CHEB/ 1.308e-01    7.980e-02    -1.257e-02   -6.682e-03   -2.766e-04  /
#      CHEB/ -1.402e-05   5.649e-05    -1.497e-01   -2.732e-02   4.752e-02   /
#      CHEB/ 7.213e-03    -3.095e-03   -2.305e-04   3.779e-05    -2.528e-04  /