units(length='cm', time='s', quantity='mol', act_energy='kcal/mol')

ideal_gas(name='gas',
          elements="H D T C Ci O Oi N Ne Ar He Si S F Cl Br I X",
          species="""OH             bQOOH[O]       acetone
                     H2O            balkoxyketone  ibutenol
                     trisub_epoxy   bQOOHg         CH2O
                     galkene        O2             bR
                     bQOOHa         bRO2           disub_epoxy
                     HO2""",
          reactions='all',
          initial_state=state(temperature=300.0, pressure=OneAtm))

#-------------------------------------------------------------------------------
# Element data
#-------------------------------------------------------------------------------

element(symbol='Ci', atomic_mass=13.003)
element(symbol='D', atomic_mass=2.014)
element(symbol='Oi', atomic_mass=18.0)
element(symbol='T', atomic_mass=3.016)
element(symbol='X', atomic_mass=195.083)
#-------------------------------------------------------------------------------
# Species data
#-------------------------------------------------------------------------------

species(name='OH',
        atoms='H:1 O:1',
        thermo=(NASA([10.00, 984.14],
                     [ 3.49686242E+00,  1.83973160E-04, -9.97634499E-07,
                       1.56942783E-09, -6.10128175E-13,  3.41673934E+03,
                       1.48093120E+00]),
                NASA([984.14, 3000.00],
                     [ 3.45221464E+00, -2.95124034E-04,  7.39418622E-07,
                      -2.89309866E-10,  3.53041498E-14,  3.45751599E+03,
                       1.85813897E+00])))

species(name='bQOOH[O]',
        atoms='C:4 H:9 O:3',
        thermo=(NASA([10.00, 338.69],
                     [ 3.60915854E+00,  3.39069566E-02,  2.22227265E-04,
                      -8.23527342E-07,  8.56246333E-10, -2.24327316E+04,
                       1.23284605E+01]),
                NASA([338.69, 3000.00],
                     [ 5.03198881E+00,  5.46235886E-02, -3.56935806E-05,
                       1.12371751E-08, -1.35390171E-12, -2.27443143E+04,
                       3.82760723E+00])))

species(name='acetone',
        atoms='C:3 H:6 O:1',
        thermo=(NASA([10.00, 414.35],
                     [ 3.73496166E+00,  3.05743218E-02, -1.26253585E-04,
                       3.66080978E-07, -3.31430437E-10, -2.84712537E+04,
                       8.24936012E+00]),
                NASA([414.35, 3000.00],
                     [ 1.70010292E-01,  3.28431468E-02, -1.80960132E-05,
                       4.82960690E-09, -5.02388538E-13, -2.78998706E+04,
                       2.56372653E+01])))

species(name='H2O',
        atoms='H:2 O:1',
        thermo=(NASA([10.00, 773.84],
                     [ 4.00473541E+00, -2.39729134E-04,  8.11862955E-07,
                       1.47891862E-09, -1.19783539E-12, -3.03533807E+04,
                      -9.96254147E-02]),
                NASA([773.84, 3000.00],
                     [ 3.52133374E+00,  1.05377009E-03,  6.40722099E-07,
                      -3.86240235E-10,  5.49243294E-14, -3.02424794E+04,
                       2.34173094E+00])))

species(name='balkoxyketone',
        atoms='C:4 H:7 O:2',
        thermo=(NASA([10.00, 269.93],
                     [ 3.81931151E+00,  1.68519318E-02,  2.42742224E-04,
                      -9.64821161E-07,  1.18509335E-09, -1.79355522E+04,
                       1.20521854E+01]),
                NASA([269.93, 3000.00],
                     [ 3.57555944E+00,  4.28868089E-02, -2.65390705E-05,
                       7.99659117E-09, -9.32983470E-13, -1.80040803E+04,
                       1.13957990E+01])))

species(name='ibutenol',
        atoms='C:4 H:8 O:1',
        thermo=(NASA([10.00, 135.97],
                     [ 3.95714996E+00,  5.72646980E-03,  4.63611760E-04,
                      -3.04137514E-06,  6.85019471E-09, -2.42097404E+04,
                       8.21931848E+00]),
                NASA([135.97, 3000.00],
                     [ 3.32467612E+00,  3.69033556E-02, -1.89960416E-05,
                       4.73417677E-09, -4.59705291E-13, -2.42041618E+04,
                       9.58133237E+00])))

species(name='trisub_epoxy',
        atoms='C:4 H:8 O:2',
        thermo=(NASA([10.00, 209.19],
                     [ 3.75295042E+00,  2.37546930E-02,  1.26610110E-04,
                      -4.78364365E-07,  5.79468168E-10, -4.04416842E+04,
                       1.12739684E+01]),
                NASA([209.19, 3000.00],
                     [ 2.64185254E+00,  4.50006531E-02, -2.57361066E-05,
                       7.15266054E-09, -7.72980731E-13, -4.03951986E+04,
                       1.48960343E+01])))

species(name='bQOOHg',
        atoms='C:4 H:9 O:3',
        thermo=(NASA([10.00, 441.09],
                     [ 3.56595280E+00,  3.36073467E-02,  2.03462772E-04,
                      -5.98977617E-07,  4.83271168E-10, -2.45855781E+04,
                       1.33537891E+01]),
                NASA([441.09, 3000.00],
                     [ 6.09031192E+00,  5.80517622E-02, -4.06392697E-05,
                       1.32574026E-08, -1.62501077E-12, -2.52687636E+04,
                      -1.97849715E+00])))

species(name='CH2O',
        atoms='C:1 H:2 O:1',
        thermo=(NASA([10.00, 601.31],
                     [ 4.03190845E+00, -1.93233367E-03,  8.89743345E-06,
                       2.98105926E-09, -7.90813886E-12, -1.42276270E+04,
                       3.47574660E+00]),
                NASA([601.31, 3000.00],
                     [ 1.40134195E+00,  9.48858016E-03, -4.43088317E-06,
                       9.48452194E-10, -7.43790219E-14, -1.38013869E+04,
                       1.57423780E+01])))

species(name='galkene',
        atoms='C:4 H:8 O:1',
        thermo=(NASA([10.00, 383.47],
                     [ 3.84035604E+00,  1.20378740E-02,  1.87486319E-04,
                      -5.44759148E-07,  4.80711015E-10, -2.00282960E+04,
                       1.02570291E+01]),
                NASA([383.47, 3000.00],
                     [ 4.00413385E+00,  3.79025144E-02, -2.15435710E-05,
                       6.15213311E-09, -6.97446345E-13, -2.02435854E+04,
                       6.98052628E+00])))

species(name='O2',
        atoms='O:2',
        thermo=(NASA([10.00, 605.96],
                     [ 3.50743498E+00, -4.43860349E-04,  1.45938058E-06,
                       1.61509333E-09, -2.32050052E-12, -9.24756224E+02,
                       4.72183634E+00]),
                NASA([605.96, 3000.00],
                     [ 2.87462882E+00,  2.17840991E-03, -1.18262921E-06,
                       2.86910493E-10, -2.53297146E-14, -8.19517838E+02,
                       7.69331810E+00])))

species(name='bR',
        atoms='C:4 H:9 O:1',
        thermo=(NASA([10.00, 483.43],
                     [ 3.38164846E+00,  5.97142637E-02, -1.58320095E-04,
                       3.04908893E-07, -2.13091806E-10, -1.12627924E+04,
                       1.09226843E+01]),
                NASA([483.43, 3000.00],
                     [ 2.33428824E+00,  4.22094427E-02, -2.28029290E-05,
                       6.04614564E-09, -6.30240159E-13, -1.08557104E+04,
                       1.83772893E+01])))

species(name='bQOOHa',
        atoms='C:4 H:9 O:3',
        thermo=(NASA([10.00, 390.53],
                     [ 3.54969236E+00,  3.76592474E-02,  1.76622653E-04,
                      -5.98063750E-07,  5.45069236E-10, -2.71073255E+04,
                       1.31518761E+01]),
                NASA([390.53, 3000.00],
                     [ 5.33564209E+00,  5.64935715E-02, -3.83214298E-05,
                       1.22990604E-08, -1.49549987E-12, -2.75299355E+04,
                       2.59015836E+00])))

species(name='bRO2',
        atoms='C:4 H:9 O:3',
        thermo=(NASA([10.00, 461.39],
                     [ 3.53964713E+00,  3.88723795E-02,  9.57420148E-05,
                      -2.80380499E-07,  2.09647462E-10, -3.27626553E+04,
                       1.18803618E+01]),
                NASA([461.39, 3000.00],
                     [ 3.47201723E+00,  6.00510247E-02, -4.00567321E-05,
                       1.25663813E-08, -1.49496682E-12, -3.29756021E+04,
                       9.77903975E+00])))

species(name='disub_epoxy',
        atoms='C:4 H:8 O:2',
        thermo=(NASA([10.00, 549.41],
                     [ 3.89863211E+00,  5.97532637E-03,  1.66685676E-04,
                      -3.10743768E-07,  1.78330192E-10, -3.65271961E+04,
                       1.13847308E+01]),
                NASA([549.41, 3000.00],
                     [-6.40277648E-01,  6.05960003E-02, -4.13427220E-05,
                       1.31555461E-08, -1.57685017E-12, -3.63540792E+04,
                       2.76005436E+01])))

species(name='HO2',
        atoms='H:1 O:2',
        thermo=(NASA([10.00, 891.11],
                     [ 4.02887004E+00, -1.75769289E-03,  1.08726004E-05,
                      -1.13812972E-08,  3.90113097E-12,  4.95165001E+02,
                       4.69302008E+00]),
                NASA([891.11, 3000.00],
                     [ 3.06571044E+00,  4.28505005E-03, -2.19325920E-06,
                       5.58882699E-10, -5.61246669E-14,  5.98557610E+02,
                       8.84564156E+00])))

#-------------------------------------------------------------------------------
# Reaction data
#-------------------------------------------------------------------------------

# Reaction 1
chebyshev_reaction('bQOOHg (+ M) <=> bRO2 (+ M)',
                   Tmin=180.0, Tmax=1500.0,
                   Pmin=(0.01, 'atm'), Pmax=(98.692, 'atm'),
                   coeffs=[[-1.99600e+00,  1.35700e+00,  4.20100e-02, -4.29800e-02, -6.04400e-03,  3.62700e-03,  6.47400e-04, -3.92600e-04],
                           [ 9.06100e-01,  1.92500e+00,  1.32400e-01, -6.26700e-02, -7.01700e-03,  4.90200e-03,  3.56400e-04, -5.87800e-04],
                           [-2.02800e+00,  5.92800e-01,  9.71500e-02,  4.17000e-03,  2.47400e-03,  8.16000e-05, -1.18100e-03, -1.92000e-04],
                           [-1.36700e+00, -1.43800e-01, -7.59800e-03,  3.37300e-02,  1.15700e-02, -1.91500e-03, -1.76900e-03,  1.09700e-04],
                           [-7.68900e-01, -2.21800e-01, -4.85900e-02,  1.48600e-02,  8.28900e-03, -4.02400e-04, -5.85800e-04,  2.11300e-04],
                           [-3.88100e-01, -8.93400e-02, -1.95100e-02, -2.90100e-03, -1.90900e-03,  4.60400e-05,  8.70100e-04,  3.02000e-04],
                           [-1.73500e-01, -2.19700e-02,  1.27100e-02, -1.09000e-03, -5.43100e-03, -9.53300e-04,  8.48200e-04,  2.47700e-04],
                           [-1.15300e-01, -2.42900e-02,  1.51300e-02,  6.38700e-03, -1.78500e-03, -9.22800e-04,  1.95800e-05, -4.34600e-05],
                           [-6.11100e-02, -3.95500e-02,  3.42400e-03,  7.18200e-03,  1.89500e-03,  1.57300e-04, -2.81500e-04, -2.44400e-04],
                           [-4.37600e-02, -4.02800e-02, -7.30000e-03,  3.43800e-03,  2.25100e-03,  7.98800e-04, -1.54600e-05, -1.60500e-04]])

# Reaction 2
chebyshev_reaction('bQOOHa (+ M) <=> bRO2 (+ M)',
                   Tmin=180.0, Tmax=1500.0,
                   Pmin=(0.01, 'atm'), Pmax=(98.692, 'atm'),
                   coeffs=[[ 1.94900e-01,  8.51600e-01, -3.66600e-02, -4.60900e-03,  1.87500e-03, -1.26500e-04, -9.16300e-05,  2.09300e-05],
                           [ 2.41700e+00,  1.30700e+00, -1.02000e-02, -7.44500e-03,  1.66100e-03, -1.96300e-04, -6.28500e-05,  1.86100e-05],
                           [-2.00900e+00,  5.18600e-01,  7.61700e-02,  5.09400e-03, -2.43500e-03, -1.90200e-04,  1.05300e-04, -8.17200e-06],
                           [-1.49100e+00, -3.60200e-02,  7.16700e-02,  1.92400e-02, -2.00000e-03, -5.61600e-04,  5.44500e-05,  5.13300e-06],
                           [-9.01200e-01, -1.81100e-01,  1.17200e-02,  1.67400e-02,  2.30100e-03, -3.21800e-04, -1.85900e-04,  2.29700e-06],
                           [-4.69800e-01, -1.19700e-01, -2.26400e-02,  2.58300e-03,  3.53000e-03,  6.65100e-04, -1.74700e-04, -5.18000e-05],
                           [-2.23200e-01, -4.87100e-02, -1.64500e-02, -5.75000e-03,  5.68000e-04,  9.57400e-04,  1.39100e-04, -5.30500e-05],
                           [-1.07800e-01, -1.95300e-02, -3.23400e-04, -3.32300e-03, -1.87200e-03,  1.75700e-04,  2.71600e-04,  2.63300e-05],
                           [-6.77500e-02, -1.55900e-02,  5.65600e-03,  2.34100e-03, -1.29400e-03, -5.21200e-04,  5.35200e-05,  6.04600e-05],
                           [-1.64900e-02, -1.95900e-02,  2.10900e-03,  4.73300e-03,  6.84100e-04, -4.12700e-04, -1.72900e-04, -1.34400e-06]])

# Reaction 3
chebyshev_reaction('bQOOH[O] (+ M) <=> bRO2 (+ M)',
                   Tmin=180.0, Tmax=1500.0,
                   Pmin=(0.01, 'atm'), Pmax=(98.692, 'atm'),
                   coeffs=[[ 4.78500e+00,  1.96300e+00, -5.13600e-02, -1.67000e-02, -4.91800e-03, -9.12000e-04,  1.34200e-04,  2.11000e-04],
                           [-5.98900e+00,  1.83200e-01,  3.60300e-02,  1.58900e-02,  4.21800e-03,  1.68700e-03,  4.84000e-04, -1.01800e-04],
                           [-2.87700e+00, -1.29300e-03, -4.52000e-02, -1.32600e-02, -3.20400e-03, -1.39000e-05,  4.87600e-04,  2.80300e-04],
                           [-1.33800e+00,  6.24500e-02,  5.73000e-03,  2.54400e-03,  3.46200e-04,  2.00300e-05, -9.56600e-05, -1.19900e-04],
                           [-6.90700e-01,  3.49300e-02,  1.04200e-02,  3.83100e-03,  1.67100e-03,  7.76700e-04,  2.19300e-04,  3.66700e-06],
                           [-3.60400e-01, -1.02000e-02,  2.04800e-03, -1.43500e-04,  1.24600e-04,  1.87500e-04,  7.45000e-05,  3.51800e-05],
                           [-2.92000e-01, -7.90700e-03,  1.10000e-02,  2.33800e-03,  3.16500e-04,  9.99900e-05, -5.09000e-05, -4.96700e-05],
                           [-1.35100e-01, -3.61800e-02,  6.41700e-04,  8.05000e-04,  4.55000e-04,  3.77200e-04,  1.20200e-04,  2.43200e-05],
                           [-4.35900e-02, -3.04300e-02, -6.59100e-04,  2.37300e-04, -2.40800e-04,  1.95700e-05, -6.62600e-06, -6.24100e-06],
                           [-2.10700e-02, -3.57100e-02, -6.36900e-03,  5.98000e-04,  3.61900e-04,  1.98900e-04,  1.02100e-04,  2.13500e-05]])

# Reaction 4
chebyshev_reaction('O2 + bR (+ M) <=> bRO2 (+ M)',
                   Tmin=180.0, Tmax=1500.0,
                   Pmin=(0.01, 'atm'), Pmax=(98.692, 'atm'),
                   coeffs=[[ 1.22300e+01,  5.71400e-01, -1.10000e-01,  2.66900e-02, -7.15900e-03,  1.41300e-03, -2.16500e-04,  2.00600e-05],
                           [-1.42400e+00,  9.37000e-01, -1.25800e-01,  1.59600e-02, -8.81100e-04, -1.29700e-03,  6.06900e-04, -1.60600e-04],
                           [-1.02400e+00,  6.06800e-01, -1.88700e-02, -9.85600e-03,  4.04300e-03, -1.55700e-03,  3.10000e-04, -1.76700e-06],
                           [-7.50500e-01,  3.06500e-01,  4.37000e-02, -1.39800e-02,  2.32800e-03, -4.32700e-04, -6.15700e-05,  6.60300e-05],
                           [-5.11900e-01,  1.06700e-01,  5.59600e-02, -5.72500e-03, -3.62400e-04,  1.72100e-04, -1.10500e-04,  3.12800e-05],
                           [-3.33500e-01, -2.09500e-04,  4.22500e-02,  2.04700e-03, -9.19200e-04,  9.99500e-05, -4.07500e-05, -3.12900e-07],
                           [-2.08600e-01, -4.58800e-02,  2.34200e-02,  4.95400e-03, -1.00700e-04, -8.38900e-06, -2.66100e-05, -1.01200e-05],
                           [-1.24300e-01, -5.72400e-02,  7.98900e-03,  4.72100e-03,  5.47600e-04,  1.09700e-04, -3.98900e-05, -2.05600e-05],
                           [-6.82700e-02, -5.26100e-02, -1.83200e-03,  3.22700e-03,  7.60900e-04,  2.19500e-04, -8.38400e-06, -3.17600e-05],
                           [-3.22500e-02, -4.09700e-02, -7.32300e-03,  1.75600e-03,  6.97100e-04,  2.11400e-04,  3.51000e-05, -2.64800e-05]])
#  bRO2(+M) <=> bQOOHg(+M)                             1.000e+00 0.000     0.000
#      TCHEB/ 180.000   1500.000 /
#      PCHEB/ 0.010     98.692   /
#      CHEB/ 10 8/
#      CHEB/ -1.209e+01   1.357e+00    4.201e-02    -4.298e-02   -6.044e-03  /
#      CHEB/ 3.627e-03    6.474e-04    -3.926e-04   9.980e+00    1.925e+00   /
#      CHEB/ 1.324e-01    -6.267e-02   -7.017e-03   4.902e-03    3.564e-04   /
#      CHEB/ -5.878e-04   -1.882e+00   5.928e-01    9.715e-02    4.170e-03   /
#      CHEB/ 2.474e-03    8.160e-05    -1.181e-03   -1.920e-04   -1.330e+00  /
#      CHEB/ -1.438e-01   -7.598e-03   3.373e-02    1.157e-02    -1.915e-03  /
#      CHEB/ -1.769e-03   1.097e-04    -7.632e-01   -2.218e-01   -4.859e-02  /
#      CHEB/ 1.486e-02    8.289e-03    -4.024e-04   -5.858e-04   2.113e-04   /
#      CHEB/ -3.883e-01   -8.934e-02   -1.951e-02   -2.901e-03   -1.909e-03  /
#      CHEB/ 4.604e-05    8.701e-04    3.020e-04    -1.741e-01   -2.197e-02  /
#      CHEB/ 1.271e-02    -1.090e-03   -5.431e-03   -9.533e-04   8.482e-04   /
#      CHEB/ 2.477e-04    -1.157e-01   -2.429e-02   1.513e-02    6.387e-03   /
#      CHEB/ -1.785e-03   -9.228e-04   1.958e-05    -4.346e-05   -6.143e-02  /
#      CHEB/ -3.955e-02   3.424e-03    7.182e-03    1.895e-03    1.573e-04   /
#      CHEB/ -2.815e-04   -2.444e-04   -4.394e-02   -4.028e-02   -7.300e-03  /
#      CHEB/ 3.438e-03    2.251e-03    7.988e-04    -1.546e-05   -1.605e-04  /

# Reaction 5
chebyshev_reaction('bQOOHa (+ M) <=> bQOOHg (+ M)',
                   Tmin=180.0, Tmax=1500.0,
                   Pmin=(0.01, 'atm'), Pmax=(98.692, 'atm'),
                   coeffs=[[-1.26200e+01,  9.58800e-01, -4.66000e-02, -8.37000e-02, -3.02800e-03,  6.49500e-03,  6.88000e-04, -6.87100e-04],
                           [ 5.27900e+00,  3.24800e+00,  2.14900e-01, -7.49400e-02, -1.41700e-02,  4.33400e-03,  1.04300e-03, -6.05500e-04],
                           [-2.47600e+00,  2.66200e-01,  1.65000e-01,  7.27100e-02,  4.79500e-03, -6.08100e-03, -2.37400e-03,  3.39300e-04],
                           [-1.71600e+00, -4.69800e-01, -5.22300e-02,  5.33400e-02,  2.02100e-02, -9.95900e-04, -2.30300e-03,  4.30600e-05],
                           [-8.25900e-01, -2.67900e-01, -9.06300e-02, -5.57400e-03,  5.88000e-03,  2.51200e-03,  9.01400e-04,  2.40300e-04],
                           [-3.65000e-01, -7.20600e-02, -3.64300e-02, -1.71700e-02, -6.45600e-03,  1.49100e-04,  1.38500e-03,  4.13000e-04],
                           [-1.56500e-01,  5.09700e-03,  1.02200e-02, -5.60700e-03, -6.57000e-03, -1.48700e-03,  2.51000e-04,  8.45600e-05],
                           [-7.04200e-02,  1.63900e-02,  2.61200e-02,  6.53200e-03, -2.55600e-03, -1.31400e-03, -3.15800e-04, -1.36100e-04],
                           [-3.75500e-02, -6.51600e-03,  2.05000e-02,  1.08900e-02,  1.20300e-03, -4.02400e-04, -3.09100e-04, -1.57500e-04],
                           [-2.75900e-02, -2.78700e-02,  3.72700e-03,  8.80400e-03,  2.95600e-03,  4.86400e-04, -9.57200e-05, -1.12300e-04]])

# Reaction 6
chebyshev_reaction('bQOOH[O] (+ M) <=> bQOOHg (+ M)',
                   Tmin=180.0, Tmax=1500.0,
                   Pmin=(0.01, 'atm'), Pmax=(98.692, 'atm'),
                   coeffs=[[-8.93200e+00,  2.02500e+00,  2.22800e-01, -5.41500e-02, -4.45800e-02, -7.91100e-03,  2.17600e-03,  1.29500e-03],
                           [-2.74600e+00,  1.53800e+00,  2.17300e-02,  1.73500e-02,  4.00400e-02,  7.04200e-03, -5.55400e-03, -2.23900e-03],
                           [-2.70100e+00,  2.49200e-01, -1.29200e-01, -6.73400e-02,  2.93300e-03,  1.46200e-02,  4.91600e-03, -4.96800e-04],
                           [-1.54400e+00, -1.34900e-01, -3.35900e-02,  9.33400e-03, -1.78300e-03, -3.91800e-03, -4.34100e-04,  1.03900e-03],
                           [-7.52100e-01, -1.11100e-01, -2.27300e-03,  2.66300e-02,  3.64500e-03, -5.43400e-03, -2.32200e-03,  3.30900e-04],
                           [-3.23500e-01, -3.84100e-02, -5.57600e-04,  7.62400e-03,  7.44500e-04, -9.56700e-04, -2.32200e-04, -8.96800e-05],
                           [-2.38500e-01, -2.10300e-03,  1.61300e-02,  4.20300e-03, -7.98300e-04,  6.32100e-04,  7.49100e-04, -8.14200e-05],
                           [-1.03700e-01, -2.97300e-02,  1.01400e-02,  5.72000e-03, -6.21800e-04, -3.31400e-05,  6.17100e-04,  2.08900e-04],
                           [-2.74300e-02, -3.59900e-02,  3.46900e-03,  5.44300e-03,  1.24600e-03, -1.20300e-04, -3.23100e-04, -1.01500e-04],
                           [-2.88800e-02, -3.56800e-02, -8.30900e-03,  1.03800e-03,  2.25300e-03,  9.11900e-04, -2.33500e-04, -1.76600e-04]])

# Reaction 7
chebyshev_reaction('O2 + bR (+ M) <=> bQOOHg (+ M)',
                   Tmin=180.0, Tmax=1500.0,
                   Pmin=(0.01, 'atm'), Pmax=(98.692, 'atm'),
                   coeffs=[[ 1.88200e+00,  2.55500e+00, -2.25000e-02, -2.76400e-01, -6.43100e-02,  4.31600e-02,  1.95900e-02, -5.56900e-03],
                           [-1.43000e+00,  9.85400e-01,  1.42000e-01,  2.15600e-01,  2.28700e-02, -4.62200e-02, -2.07300e-02,  7.19800e-03],
                           [-1.23500e+00,  2.02500e-01, -7.33800e-02,  6.74100e-02,  3.97800e-02, -7.90500e-04, -4.43800e-03, -2.51400e-03],
                           [-8.07100e-01,  1.77300e-02, -1.12400e-01, -2.50600e-02,  2.01100e-02,  1.02900e-02,  2.38300e-03, -1.62200e-03],
                           [-4.51500e-01,  3.63500e-02, -3.44500e-02, -4.02200e-02, -6.50300e-03,  3.22900e-03,  3.60600e-03,  1.32900e-03],
                           [-2.27700e-01,  5.25400e-02,  2.77700e-02, -1.99600e-02, -1.30300e-02, -2.19700e-03,  1.14100e-03,  1.16900e-03],
                           [-1.20100e-01,  3.31100e-02,  5.09500e-02,  2.91700e-03, -8.33800e-03, -3.65100e-03, -6.20300e-04,  3.03300e-04],
                           [-6.89600e-02, -3.10300e-03,  4.14200e-02,  1.46100e-02, -1.05200e-03, -2.14700e-03, -1.18200e-03, -3.65800e-04],
                           [-4.94300e-02, -3.23400e-02,  2.12900e-02,  1.49600e-02,  2.80400e-03, -3.83700e-04, -6.62600e-04, -3.79600e-04],
                           [-3.09400e-02, -4.61100e-02, -1.29800e-03,  8.77500e-03,  4.27200e-03,  1.18500e-03, -1.89600e-04, -3.83300e-04]])
#  bRO2(+M) <=> bQOOHa(+M)                             1.000e+00 0.000     0.000
#      TCHEB/ 180.000   1500.000 /
#      PCHEB/ 0.010     98.692   /
#      CHEB/ 10 8/
#      CHEB/ -6.598e+00   8.516e-01    -3.666e-02   -4.609e-03   1.875e-03   /
#      CHEB/ -1.265e-04   -9.163e-05   2.093e-05    8.666e+00    1.307e+00   /
#      CHEB/ -1.020e-02   -7.445e-03   1.661e-03    -1.963e-04   -6.285e-05  /
#      CHEB/ 1.861e-05    -1.954e+00   5.186e-01    7.617e-02    5.094e-03   /
#      CHEB/ -2.435e-03   -1.902e-04   1.053e-04    -8.172e-06   -1.490e+00  /
#      CHEB/ -3.602e-02   7.167e-02    1.924e-02    -2.000e-03   -5.616e-04  /
#      CHEB/ 5.445e-05    5.133e-06    -9.060e-01   -1.811e-01   1.172e-02   /
#      CHEB/ 1.674e-02    2.301e-03    -3.218e-04   -1.859e-04   2.297e-06   /
#      CHEB/ -4.725e-01   -1.197e-01   -2.264e-02   2.583e-03    3.530e-03   /
#      CHEB/ 6.651e-04    -1.747e-04   -5.180e-05   -2.245e-01   -4.871e-02  /
#      CHEB/ -1.645e-02   -5.750e-03   5.680e-04    9.574e-04    1.391e-04   /
#      CHEB/ -5.305e-05   -1.085e-01   -1.953e-02   -3.234e-04   -3.323e-03  /
#      CHEB/ -1.872e-03   1.757e-04    2.716e-04    2.633e-05    -6.810e-02  /
#      CHEB/ -1.559e-02   5.656e-03    2.341e-03    -1.294e-03   -5.212e-04  /
#      CHEB/ 5.352e-05    6.046e-05    -1.660e-02   -1.959e-02   2.109e-03   /
#      CHEB/ 4.733e-03    6.841e-04    -4.127e-04   -1.729e-04   -1.344e-06  /
#  bQOOHg(+M) <=> bQOOHa(+M)                           1.000e+00 0.000     0.000
#      TCHEB/ 180.000   1500.000 /
#      PCHEB/ 0.010     98.692   /
#      CHEB/ 10 8/
#      CHEB/ -9.315e+00   9.588e-01    -4.660e-02   -8.370e-02   -3.028e-03  /
#      CHEB/ 6.495e-03    6.880e-04    -6.871e-04   2.454e+00    3.248e+00   /
#      CHEB/ 2.149e-01    -7.494e-02   -1.417e-02   4.334e-03    1.043e-03   /
#      CHEB/ -6.055e-04   -2.567e+00   2.662e-01    1.650e-01    7.271e-02   /
#      CHEB/ 4.795e-03    -6.081e-03   -2.374e-03   3.393e-04    -1.752e+00  /
#      CHEB/ -4.698e-01   -5.223e-02   5.334e-02    2.021e-02    -9.959e-04  /
#      CHEB/ -2.303e-03   4.306e-05    -8.365e-01   -2.679e-01   -9.063e-02  /
#      CHEB/ -5.574e-03   5.880e-03    2.512e-03    9.014e-04    2.403e-04   /
#      CHEB/ -3.677e-01   -7.206e-02   -3.643e-02   -1.717e-02   -6.456e-03  /
#      CHEB/ 1.491e-04    1.385e-03    4.130e-04    -1.573e-01   5.097e-03   /
#      CHEB/ 1.022e-02    -5.607e-03   -6.570e-03   -1.487e-03   2.510e-04   /
#      CHEB/ 8.456e-05    -7.069e-02   1.639e-02    2.612e-02    6.532e-03   /
#      CHEB/ -2.556e-03   -1.314e-03   -3.158e-04   -1.361e-04   -3.758e-02  /
#      CHEB/ -6.516e-03   2.050e-02    1.089e-02    1.203e-03    -4.024e-04  /
#      CHEB/ -3.091e-04   -1.575e-04   -2.752e-02   -2.787e-02   3.727e-03   /
#      CHEB/ 8.804e-03    2.956e-03    4.864e-04    -9.572e-05   -1.123e-04  /

# Reaction 8
chebyshev_reaction('bQOOH[O] (+ M) <=> bQOOHa (+ M)',
                   Tmin=180.0, Tmax=1500.0,
                   Pmin=(0.01, 'atm'), Pmax=(98.692, 'atm'),
                   coeffs=[[-3.71600e+00,  1.30500e+00,  8.12100e-02, -1.31600e-02, -2.84500e-02, -1.01500e-02,  3.54600e-04,  1.57600e-03],
                           [-3.67600e+00,  1.12400e+00, -5.65400e-02,  4.26200e-02,  3.03300e-02,  3.31900e-03, -2.57200e-03, -1.21000e-03],
                           [-2.83500e+00,  1.48200e-01, -1.04300e-01, -4.15500e-02,  6.17600e-03,  1.02700e-02,  2.54000e-03, -6.94900e-04],
                           [-1.71400e+00, -3.01600e-02,  5.19600e-02, -4.12500e-03, -1.03800e-02, -4.71200e-04,  1.30500e-03,  4.43700e-04],
                           [-8.93300e-01, -9.27600e-02,  4.05500e-02,  1.93500e-02, -3.30500e-03, -3.58100e-03, -3.63600e-04,  4.94200e-04],
                           [-4.07500e-01, -8.52200e-02, -9.98700e-03,  9.37000e-03,  4.11000e-03, -9.54700e-04, -1.06800e-03, -1.23800e-04],
                           [-2.82800e-01, -2.21300e-02, -4.79200e-03,  8.38200e-04,  3.57400e-03,  1.39300e-03, -3.80800e-04, -4.11000e-04],
                           [-1.01200e-01, -2.60000e-02, -1.18600e-03, -1.52400e-03, -1.81400e-04,  9.23200e-04,  5.29300e-04,  2.19600e-05],
                           [-2.12200e-02, -1.08000e-02,  5.97300e-03,  4.43500e-04, -1.54900e-03, -3.22800e-04,  2.12600e-04,  1.30500e-04],
                           [-1.15300e-02, -2.10900e-02, -8.00100e-04,  2.74400e-03,  9.09300e-04, -1.39500e-04, -2.10600e-04,  3.47500e-05]])

# Reaction 9
chebyshev_reaction('O2 + bR (+ M) <=> bQOOHa (+ M)',
                   Tmin=180.0, Tmax=1500.0,
                   Pmin=(0.01, 'atm'), Pmax=(98.692, 'atm'),
                   coeffs=[[ 6.52400e+00,  1.11000e+00, -2.97200e-01, -8.94500e-02, -9.69100e-03,  1.68600e-02,  5.16300e-03, -2.70100e-03],
                           [-1.70200e+00,  1.06800e+00,  1.38700e-01,  1.10400e-01, -1.48000e-02, -2.38100e-02, -3.79400e-03,  4.86400e-03],
                           [-1.39200e+00,  3.85700e-01,  1.58500e-02,  3.25700e-02,  2.05900e-02,  3.41100e-04, -3.35300e-03, -2.23000e-03],
                           [-9.79300e-01,  7.76900e-02, -8.45200e-03, -1.37600e-02,  1.11600e-02,  5.75700e-03,  1.13800e-03, -1.05600e-03],
                           [-5.89200e-01, -6.22200e-03,  4.78800e-03, -2.16200e-02, -1.99800e-03,  2.35300e-03,  1.86100e-03,  6.03500e-04],
                           [-3.16000e-01, -1.03800e-02,  1.84600e-02, -1.27800e-02, -5.78200e-03, -7.48500e-04,  5.28900e-04,  6.64500e-04],
                           [-1.58800e-01, -3.60500e-03,  2.58000e-02, -2.61300e-03, -4.18900e-03, -1.52600e-03, -3.94300e-04,  1.46400e-04],
                           [-7.46000e-02, -5.84500e-03,  2.57200e-02,  4.74000e-03, -1.71400e-03, -1.10500e-03, -5.27300e-04, -1.43700e-04],
                           [-3.68800e-02, -1.79700e-02,  1.77400e-02,  8.43400e-03,  7.01500e-04, -4.45200e-04, -3.83400e-04, -2.07100e-04],
                           [-1.96400e-02, -2.86800e-02,  5.41700e-03,  8.25700e-03,  2.24300e-03,  1.48100e-04, -1.50300e-04, -1.46100e-04]])
#  bRO2(+M) <=> bQOOH[O](+M)                           1.000e+00 0.000     0.000
#      TCHEB/ 180.000   1500.000 /
#      PCHEB/ 0.010     98.692   /
#      CHEB/ 10 8/
#      CHEB/ -8.734e+00   1.963e+00    -5.136e-02   -1.670e-02   -4.918e-03  /
#      CHEB/ -9.120e-04   1.342e-04    2.110e-04    5.099e+00    1.832e-01   /
#      CHEB/ 3.603e-02    1.589e-02    4.218e-03    1.687e-03    4.840e-04   /
#      CHEB/ -1.018e-04   -2.883e+00   -1.293e-03   -4.520e-02   -1.326e-02  /
#      CHEB/ -3.204e-03   -1.390e-05   4.876e-04    2.803e-04    -1.360e+00  /
#      CHEB/ 6.245e-02    5.730e-03    2.544e-03    3.462e-04    2.003e-05   /
#      CHEB/ -9.566e-05   -1.199e-04   -7.014e-01   3.493e-02    1.042e-02   /
#      CHEB/ 3.831e-03    1.671e-03    7.767e-04    2.193e-04    3.667e-06   /
#      CHEB/ -3.644e-01   -1.020e-02   2.048e-03    -1.435e-04   1.246e-04   /
#      CHEB/ 1.875e-04    7.450e-05    3.518e-05    -2.935e-01   -7.907e-03  /
#      CHEB/ 1.100e-02    2.338e-03    3.165e-04    9.999e-05    -5.090e-05  /
#      CHEB/ -4.967e-05   -1.357e-01   -3.618e-02   6.417e-04    8.050e-04   /
#      CHEB/ 4.550e-04    3.772e-04    1.202e-04    2.432e-05    -4.377e-02  /
#      CHEB/ -3.043e-02   -6.591e-04   2.373e-04    -2.408e-04   1.957e-05   /
#      CHEB/ -6.626e-06   -6.241e-06   -2.106e-02   -3.571e-02   -6.369e-03  /
#      CHEB/ 5.980e-04    3.619e-04    1.989e-04    1.021e-04    2.135e-05   /
#  bQOOHg(+M) <=> bQOOH[O](+M)                         1.000e+00 0.000     0.000
#      TCHEB/ 180.000   1500.000 /
#      PCHEB/ 0.010     98.692   /
#      CHEB/ 10 8/
#      CHEB/ -1.236e+01   2.025e+00    2.228e-01    -5.415e-02   -4.458e-02  /
#      CHEB/ -7.911e-03   2.176e-03    1.295e-03    -7.313e-01   1.538e+00   /
#      CHEB/ 2.173e-02    1.735e-02    4.004e-02    7.042e-03    -5.554e-03  /
#      CHEB/ -2.239e-03   -2.852e+00   2.492e-01    -1.292e-01   -6.734e-02  /
#      CHEB/ 2.933e-03    1.462e-02    4.916e-03    -4.968e-04   -1.602e+00  /