units(length='cm', time='s', quantity='mol', act_energy='kcal/mol')

ideal_gas(name='gas',
          elements="H D T C Ci O Oi N Ne Ar He Si S F Cl Br I X",
          species="""OH             bQOOH[O]       acetone
                     H2O            balkoxyketone  ibutenol
                     trisub_epoxy   bQOOHg         CH2O
                     galkene        O2             bR
                     bQOOHa         bRO2           disub_epoxy
                     HO2""",
          reactions='all',
          initial_state=state(temperature=300.0, pressure=OneAtm))

#-------------------------------------------------------------------------------
# Element data
#-------------------------------------------------------------------------------

element(symbol='Ci', atomic_mass=13.003)
element(symbol='D', atomic_mass=2.014)
element(symbol='Oi', atomic_mass=18.0)
element(symbol='T', atomic_mass=3.016)
element(symbol='X', atomic_mass=195.083)
#-------------------------------------------------------------------------------
# Species data
#-------------------------------------------------------------------------------

species(name='OH',
        atoms='H:1 O:1',
        thermo=(NASA([10.00, 984.14],
                     [ 3.49686242E+00,  1.83973160E-04, -9.97634499E-07,
                       1.56942783E-09, -6.10128175E-13,  3.41673934E+03,
                       1.48093120E+00]),
                NASA([984.14, 3000.00],
                     [ 3.45221464E+00, -2.95124034E-04,  7.39418622E-07,
                      -2.89309866E-10,  3.53041498E-14,  3.45751599E+03,
                       1.85813897E+00])))

species(name='bQOOH[O]',
        atoms='C:4 H:9 O:3',
        thermo=(NASA([10.00, 338.69],
                     [ 3.60915854E+00,  3.39069566E-02,  2.22227265E-04,
                      -8.23527342E-07,  8.56246333E-10, -2.09594980E+04,
                       1.23284605E+01]),
                NASA([338.69, 3000.00],
                     [ 5.03198881E+00,  5.46235886E-02, -3.56935806E-05,
                       1.12371751E-08, -1.35390171E-12, -2.12710807E+04,
                       3.82760723E+00])))

species(name='acetone',
        atoms='C:3 H:6 O:1',
        thermo=(NASA([10.00, 414.35],
                     [ 3.73496166E+00,  3.05743218E-02, -1.26253585E-04,
                       3.66080978E-07, -3.31430437E-10, -2.49842414E+04,
                       8.24936012E+00]),
                NASA([414.35, 3000.00],
                     [ 1.70010292E-01,  3.28431468E-02, -1.80960132E-05,
                       4.82960690E-09, -5.02388538E-13, -2.44128583E+04,
                       2.56372653E+01])))

species(name='H2O',
        atoms='H:2 O:1',
        thermo=(NASA([10.00, 773.84],
                     [ 4.00473541E+00, -2.39729134E-04,  8.11862955E-07,
                       1.47891862E-09, -1.19783539E-12, -3.03533807E+04,
                      -9.96254147E-02]),
                NASA([773.84, 3000.00],
                     [ 3.52133374E+00,  1.05377009E-03,  6.40722099E-07,
                      -3.86240235E-10,  5.49243294E-14, -3.02424794E+04,
                       2.34173094E+00])))

species(name='balkoxyketone',
        atoms='C:4 H:7 O:2',
        thermo=(NASA([10.00, 269.93],
                     [ 3.81931151E+00,  1.68519318E-02,  2.42742224E-04,
                      -9.64821161E-07,  1.18509335E-09, -1.94201557E+04,
                       1.20521854E+01]),
                NASA([269.93, 3000.00],
                     [ 3.57555944E+00,  4.28868089E-02, -2.65390705E-05,
                       7.99659117E-09, -9.32983470E-13, -1.94886838E+04,
                       1.13957990E+01])))

species(name='ibutenol',
        atoms='C:4 H:8 O:1',
        thermo=(NASA([10.00, 135.97],
                     [ 3.95714996E+00,  5.72646980E-03,  4.63611760E-04,
                      -3.04137514E-06,  6.85019471E-09, -2.29993517E+04,
                       8.21931848E+00]),
                NASA([135.97, 3000.00],
                     [ 3.32467612E+00,  3.69033556E-02, -1.89960416E-05,
                       4.73417677E-09, -4.59705291E-13, -2.29937730E+04,
                       9.58133237E+00])))

species(name='trisub_epoxy',
        atoms='C:4 H:8 O:2',
        thermo=(NASA([10.00, 209.19],
                     [ 3.75295042E+00,  2.37546930E-02,  1.26610110E-04,
                      -4.78364365E-07,  5.79468168E-10, -4.01200186E+04,
                       1.12739684E+01]),
                NASA([209.19, 3000.00],
                     [ 2.64185254E+00,  4.50006531E-02, -2.57361066E-05,
                       7.15266054E-09, -7.72980731E-13, -4.00735330E+04,
                       1.48960343E+01])))

species(name='bQOOHg',
        atoms='C:4 H:9 O:3',
        thermo=(NASA([10.00, 441.09],
                     [ 3.56595280E+00,  3.36073467E-02,  2.03462772E-04,
                      -5.98977617E-07,  4.83271168E-10, -2.26371916E+04,
                       1.33537891E+01]),
                NASA([441.09, 3000.00],
                     [ 6.09031192E+00,  5.80517622E-02, -4.06392697E-05,
                       1.32574026E-08, -1.62501077E-12, -2.33203770E+04,
                      -1.97849715E+00])))

species(name='CH2O',
        atoms='C:1 H:2 O:1',
        thermo=(NASA([10.00, 601.31],
                     [ 4.03190845E+00, -1.93233367E-03,  8.89743345E-06,
                       2.98105926E-09, -7.90813886E-12, -1.42276270E+04,
                       3.47574660E+00]),
                NASA([601.31, 3000.00],
                     [ 1.40134195E+00,  9.48858016E-03, -4.43088317E-06,
                       9.48452194E-10, -7.43790219E-14, -1.38013869E+04,
                       1.57423780E+01])))

species(name='galkene',
        atoms='C:4 H:8 O:1',
        thermo=(NASA([10.00, 383.47],
                     [ 3.84035604E+00,  1.20378740E-02,  1.87486319E-04,
                      -5.44759148E-07,  4.80711015E-10, -2.14012433E+04,
                       1.02570291E+01]),
                NASA([383.47, 3000.00],
                     [ 4.00413385E+00,  3.79025144E-02, -2.15435710E-05,
                       6.15213311E-09, -6.97446345E-13, -2.16165327E+04,
                       6.98052628E+00])))

species(name='O2',
        atoms='O:2',
        thermo=(NASA([10.00, 605.96],
                     [ 3.50743498E+00, -4.43860349E-04,  1.45938058E-06,
                       1.61509333E-09, -2.32050052E-12, -9.24756224E+02,
                       4.72183634E+00]),
                NASA([605.96, 3000.00],
                     [ 2.87462882E+00,  2.17840991E-03, -1.18262921E-06,
                       2.86910493E-10, -2.53297146E-14, -8.19517838E+02,
                       7.69331810E+00])))

species(name='bR',
        atoms='C:4 H:9 O:1',
        thermo=(NASA([10.00, 483.43],
                     [ 3.38164846E+00,  5.97142637E-02, -1.58320095E-04,
                       3.04908893E-07, -2.13091806E-10, -1.25319935E+04,
                       1.09226843E+01]),
                NASA([483.43, 3000.00],
                     [ 2.33428824E+00,  4.22094427E-02, -2.28029290E-05,
                       6.04614564E-09, -6.30240159E-13, -1.21249116E+04,
                       1.83772893E+01])))

species(name='bQOOHa',
        atoms='C:4 H:9 O:3',
        thermo=(NASA([10.00, 390.53],
                     [ 3.54969236E+00,  3.76592474E-02,  1.76622653E-04,
                      -5.98063750E-07,  5.45069236E-10, -2.76326510E+04,
                       1.31518761E+01]),
                NASA([390.53, 3000.00],
                     [ 5.33564209E+00,  5.64935715E-02, -3.83214298E-05,
                       1.22990604E-08, -1.49549987E-12, -2.80552609E+04,
                       2.59015836E+00])))

species(name='bRO2',
        atoms='C:4 H:9 O:3',
        thermo=(NASA([10.00, 461.39],
                     [ 3.53964713E+00,  3.88723795E-02,  9.57420148E-05,
                      -2.80380499E-07,  2.09647462E-10, -3.06699531E+04,
                       1.18803618E+01]),
                NASA([461.39, 3000.00],
                     [ 3.47201723E+00,  6.00510247E-02, -4.00567321E-05,
                       1.25663813E-08, -1.49496682E-12, -3.08828999E+04,
                       9.77903975E+00])))

species(name='disub_epoxy',
        atoms='C:4 H:8 O:2',
        thermo=(NASA([10.00, 549.41],
                     [ 3.89863211E+00,  5.97532637E-03,  1.66685676E-04,
                      -3.10743768E-07,  1.78330192E-10, -3.71050208E+04,
                       1.13847308E+01]),
                NASA([549.41, 3000.00],
                     [-6.40277648E-01,  6.05960003E-02, -4.13427220E-05,
                       1.31555461E-08, -1.57685017E-12, -3.69319039E+04,
                       2.76005436E+01])))

species(name='HO2',
        atoms='H:1 O:2',
        thermo=(NASA([10.00, 891.11],
                     [ 4.02887004E+00, -1.75769289E-03,  1.08726004E-05,
                      -1.13812972E-08,  3.90113097E-12,  4.95165001E+02,
                       4.69302008E+00]),
                NASA([891.11, 3000.00],
                     [ 3.06571044E+00,  4.28505005E-03, -2.19325920E-06,
                       5.58882699E-10, -5.61246669E-14,  5.98557610E+02,
                       8.84564156E+00])))

#-------------------------------------------------------------------------------
# Reaction data
#-------------------------------------------------------------------------------

# Reaction 1
chebyshev_reaction('bQOOHg (+ M) <=> bRO2 (+ M)',
                   Tmin=180.0, Tmax=1500.0,
                   Pmin=(0.01, 'atm'), Pmax=(98.692, 'atm'),
                   coeffs=[[ 3.25300e+00,  7.64000e-01, -1.33100e-01, -5.90900e-03,  2.46900e-03,  4.52300e-04, -6.72900e-05, -4.54900e-06],
                           [ 2.18400e+00,  1.28800e+00, -1.90200e-01, -1.96300e-02,  2.83300e-03,  1.43300e-03, -2.13500e-05, -5.49700e-05],
                           [ 2.37500e-01,  7.64200e-01, -4.13100e-02, -2.79600e-02, -2.60800e-03,  2.08400e-03,  3.28700e-04, -1.19700e-04],
                           [-2.99600e-01,  3.10100e-01,  5.04800e-02, -1.92800e-02, -7.21400e-03,  1.24700e-03,  7.46900e-04, -6.37900e-05],
                           [-2.73100e-01,  8.78200e-02,  5.25000e-02, -1.79800e-03, -6.57600e-03, -8.00100e-04,  7.67200e-04,  1.30200e-04],
                           [-1.37700e-01,  2.81700e-02,  1.96300e-02,  7.40900e-03, -1.98500e-03, -1.99600e-03,  2.27100e-04,  2.71700e-04],
                           [-4.98600e-02,  1.53300e-02,  4.12900e-05,  5.72100e-03,  1.55600e-03, -1.37100e-03, -3.60200e-04,  1.92400e-04],
                           [-1.41400e-02,  2.94900e-03, -1.89100e-03,  1.30200e-03,  1.85300e-03, -8.32900e-05, -4.62300e-04, -1.32400e-05],
                           [-3.33000e-03, -5.76400e-03,  5.09500e-04, -6.21900e-04,  6.28900e-04,  5.14900e-04, -1.73200e-04, -1.24900e-04],
                           [-2.91600e-04, -5.93700e-03,  8.00800e-04, -5.48700e-04, -1.39800e-04,  3.44500e-04,  7.97900e-05, -8.22600e-05]])

# Reaction 2
chebyshev_reaction('bQOOHa (+ M) <=> bRO2 (+ M)',
                   Tmin=180.0, Tmax=1500.0,
                   Pmin=(0.01, 'atm'), Pmax=(98.692, 'atm'),
                   coeffs=[[ 9.30500e-01,  7.36800e-01, -1.16600e-01, -8.02400e-03,  1.27600e-03,  4.94700e-04, -8.61500e-06,  2.64900e-06],
                           [ 4.08600e+00,  1.22500e+00, -1.60500e-01, -2.05700e-02,  1.75500e-04,  1.24300e-03,  1.27200e-04, -1.93200e-05],
                           [ 6.30200e-01,  6.88100e-01, -2.05800e-02, -2.30500e-02, -4.94000e-03,  1.26000e-03,  4.49800e-04, -2.96500e-05],
                           [-3.22900e-01,  2.46000e-01,  5.76100e-02, -1.15300e-02, -7.80200e-03,  6.70100e-05,  6.27200e-04,  6.06300e-05],
                           [-2.98000e-01,  6.17100e-02,  4.61200e-02,  4.39500e-03, -5.18900e-03, -1.60700e-03,  3.50400e-04,  1.93500e-04],
                           [-1.32200e-01,  3.64800e-02,  8.17400e-03,  9.61400e-03,  9.16300e-05, -2.00100e-03, -2.33900e-04,  1.98800e-04],
                           [-4.98300e-02,  3.30800e-02, -6.84700e-03,  4.64000e-03,  2.86400e-03, -8.17500e-04, -5.69500e-04,  3.14800e-05],
                           [-2.39300e-02,  1.29000e-02, -2.18100e-03, -5.90800e-04,  2.01800e-03,  4.59000e-04, -3.81900e-04, -1.37000e-04],
                           [-1.20400e-02, -3.64500e-03,  2.69700e-03, -1.61900e-03,  2.71900e-04,  7.15500e-04,  4.30900e-06, -1.44200e-04],
                           [-3.66200e-03, -5.81600e-03,  2.01800e-03, -6.16500e-04, -3.92200e-04,  2.93300e-04,  1.78000e-04, -3.64100e-05]])

# Reaction 3
chebyshev_reaction('bQOOH[O] (+ M) <=> bRO2 (+ M)',
                   Tmin=180.0, Tmax=1500.0,
                   Pmin=(0.01, 'atm'), Pmax=(98.692, 'atm'),
                   coeffs=[[ 9.60900e+00,  1.78700e+00, -2.27700e-01, -6.53900e-02, -6.03300e-03,  6.51400e-03,  2.92500e-03, -4.37600e-05],
                           [-7.89800e-01,  4.59700e-01,  3.03900e-02,  1.37300e-02, -9.60300e-03, -5.93300e-03, -8.01600e-04,  9.17800e-04],
                           [-4.94000e-01,  2.91100e-01, -4.23500e-03,  1.04900e-02,  3.95600e-04, -1.73800e-03, -1.22400e-03, -2.47300e-04],
                           [-3.14300e-01,  2.06200e-01,  5.50200e-05,  4.08600e-03,  7.23500e-04, -6.29200e-04, -5.27400e-04, -1.99800e-04],
                           [-2.03000e-01,  1.26600e-01,  5.68400e-03,  8.13400e-04,  8.33100e-04, -1.80600e-04, -2.56900e-04, -1.43100e-04],
                           [-1.21800e-01,  6.61400e-02,  8.56000e-03, -6.66700e-04,  4.69400e-04,  5.89000e-05, -5.45100e-05, -7.28400e-05],
                           [-5.82300e-02,  2.26200e-02,  6.25700e-03, -6.06200e-04,  4.85100e-04,  2.65000e-04,  4.45300e-06, -6.68900e-05],
                           [-3.31200e-02,  9.46100e-03,  6.00000e-03, -4.23500e-04, -4.24600e-04,  5.83700e-05,  1.34600e-04,  4.41700e-05],
                           [-5.99600e-03, -5.04400e-03,  8.29500e-04,  4.36500e-04,  1.96000e-04,  1.29100e-04,  1.15600e-05, -1.70200e-05],
                           [-8.35400e-03,  1.11300e-03,  1.43100e-03,  2.90700e-04, -3.99300e-04, -1.16500e-04,  7.03200e-05,  6.00700e-05]])

# Reaction 4
chebyshev_reaction('O2 + bR (+ M) <=> bRO2 (+ M)',
                   Tmin=180.0, Tmax=1500.0,
                   Pmin=(0.01, 'atm'), Pmax=(98.692, 'atm'),
                   coeffs=[[ 1.28600e+01,  4.23500e-01, -7.79900e-02,  7.58800e-03, -2.49100e-03,  6.10900e-04, -7.90400e-05,  9.48100e-06],
                           [-7.96200e-01,  6.73300e-01, -8.32800e-02, -7.97700e-03,  1.68900e-03, -4.74700e-04,  1.80600e-04, -2.21800e-05],
                           [-4.60800e-01,  4.05900e-01, -6.86000e-03, -1.76000e-02,  1.46300e-03, -1.86200e-05,  1.38300e-05,  1.69900e-05],
                           [-2.90700e-01,  2.01500e-01,  2.17300e-02, -9.86900e-03, -1.49100e-03,  2.95500e-04,  2.45600e-05,  2.97400e-06],
                           [-1.57900e-01,  7.68100e-02,  2.27600e-02, -1.55700e-03, -1.94000e-03, -9.99000e-05,  6.68900e-05,  1.24600e-05],
                           [-7.04400e-02,  1.02700e-02,  1.68600e-02,  1.61500e-03, -8.36200e-04, -3.23900e-04, -9.32000e-06,  2.66300e-05],
                           [-2.35300e-02, -1.43300e-02,  9.46800e-03,  2.01200e-03, -1.05800e-05, -1.98800e-04, -7.28600e-05,  1.07800e-05],
                           [-5.78100e-03, -1.33400e-02,  2.44600e-03,  1.65900e-03,  2.35400e-04, -1.72300e-05, -5.97400e-05, -1.14000e-05],
                           [-2.04900e-03, -4.94300e-03, -1.54200e-03,  9.44600e-04,  2.27100e-04,  6.75400e-05, -1.73300e-05, -1.69500e-05],
                           [-1.29900e-03, -2.32000e-04, -1.93800e-03,  2.03000e-04,  1.22600e-04,  7.52100e-05,  1.14400e-05, -9.71100e-06]])
#  bRO2(+M) <=> bQOOHg(+M)                             1.000e+00 0.000     0.000
#      TCHEB/ 180.000   1500.000 /
#      PCHEB/ 0.010     98.692   /
#      CHEB/ 10 8/
#      CHEB/ -6.648e+00   7.640e-01    -1.331e-01   -5.909e-03   2.469e-03   /
#      CHEB/ 4.523e-04    -6.729e-05   -4.549e-06   1.111e+01    1.288e+00   /
#      CHEB/ -1.902e-01   -1.963e-02   2.833e-03    1.433e-03    -2.135e-05  /
#      CHEB/ -5.497e-05   3.832e-01    7.642e-01    -4.131e-02   -2.796e-02  /
#      CHEB/ -2.608e-03   2.084e-03    3.287e-04    -1.197e-04   -2.624e-01  /
#      CHEB/ 3.101e-01    5.048e-02    -1.928e-02   -7.214e-03   1.247e-03   /
#      CHEB/ 7.469e-04    -6.379e-05   -2.673e-01   8.782e-02    5.250e-02   /
#      CHEB/ -1.798e-03   -6.576e-03   -8.001e-04   7.672e-04    1.302e-04   /
#      CHEB/ -1.379e-01   2.817e-02    1.963e-02    7.409e-03    -1.985e-03  /
#      CHEB/ -1.996e-03   2.271e-04    2.717e-04    -5.044e-02   1.533e-02   /
#      CHEB/ 4.129e-05    5.721e-03    1.556e-03    -1.371e-03   -3.602e-04  /
#      CHEB/ 1.924e-04    -1.459e-02   2.949e-03    -1.891e-03   1.302e-03   /
#      CHEB/ 1.853e-03    -8.329e-05   -4.623e-04   -1.324e-05   -3.654e-03  /
#      CHEB/ -5.764e-03   5.095e-04    -6.219e-04   6.289e-04    5.149e-04   /
#      CHEB/ -1.732e-04   -1.249e-04   -4.779e-04   -5.937e-03   8.008e-04   /
#      CHEB/ -5.487e-04   -1.398e-04   3.445e-04    7.979e-05    -8.226e-05  /

# Reaction 5
chebyshev_reaction('bQOOHa (+ M) <=> bQOOHg (+ M)',
                   Tmin=180.0, Tmax=1500.0,
                   Pmin=(0.01, 'atm'), Pmax=(98.692, 'atm'),
                   coeffs=[[-1.00300e+01, -1.73300e-01, -3.22000e-01, -5.28400e-03,  4.08000e-03,  1.82100e-04, -3.00000e-05,  4.60200e-05],
                           [ 1.07900e+01,  2.49000e+00, -2.42100e-01, -7.00500e-02,  3.72900e-03,  3.11300e-03, -8.22100e-05, -4.19300e-05],
                           [ 4.77900e-01,  8.97800e-01,  1.30600e-01, -5.11500e-02, -1.89700e-02,  3.41300e-03,  1.51300e-03, -2.19200e-04],
                           [-3.06000e-01,  2.11300e-01,  1.25400e-01,  6.76800e-03, -1.53000e-02, -3.63100e-03,  1.52000e-03,  4.48200e-04],
                           [-1.74200e-01,  6.83600e-02,  3.31600e-02,  1.95500e-02,  2.01300e-04, -4.55200e-03, -5.63200e-04,  5.32100e-04],
                           [-1.02000e-01,  1.78200e-02,  2.69500e-03,  8.22900e-03,  4.34100e-03, -8.16800e-04, -1.06400e-03, -6.72300e-05],
                           [-6.04600e-02, -1.59300e-02,  3.25600e-03,  5.02400e-04,  1.98400e-03,  8.71400e-04, -2.91700e-04, -2.33700e-04],
                           [-1.22100e-02, -1.96100e-02,  3.09400e-03, -1.07900e-03,  2.66100e-04,  5.74400e-04,  1.15200e-04, -5.38400e-05],
                           [ 1.72900e-02, -9.67700e-03,  4.55800e-04, -2.77300e-04, -2.82700e-04,  1.12500e-04,  1.07800e-04,  2.82900e-05],
                           [ 1.54700e-02, -3.30300e-03, -5.62600e-04,  4.32000e-04, -3.51000e-04, -5.69200e-05,  4.04900e-05,  1.23000e-05]])

# Reaction 6
chebyshev_reaction('bQOOH[O] (+ M) <=> bQOOHg (+ M)',
                   Tmin=180.0, Tmax=1500.0,
                   Pmin=(0.01, 'atm'), Pmax=(98.692, 'atm'),
                   coeffs=[[ 9.08700e-02,  5.82600e-01, -3.75800e-01, -6.22500e-02, -1.79200e-03,  6.86600e-03,  2.53400e-03, -2.87700e-04],
                           [ 3.41500e+00,  1.66100e+00, -1.02900e-01, -9.77800e-03, -3.40700e-03, -5.42500e-03, -1.39600e-03,  8.07500e-04],
                           [ 2.89900e-01,  8.12100e-01,  6.38100e-02, -2.63600e-02, -4.70800e-03,  5.50900e-05, -8.95500e-04, -2.39200e-04],
                           [-2.50400e-01,  2.80200e-01,  9.18100e-02, -6.74600e-03, -8.40700e-03,  4.60200e-04,  6.16600e-04, -3.65400e-04],
                           [-1.92500e-01,  7.85700e-02,  3.86100e-02,  1.02700e-02, -3.54600e-03, -1.51900e-03,  7.66900e-04,  6.18300e-05],
                           [-1.17000e-01,  2.37800e-02,  9.00700e-03,  7.76000e-03,  1.13300e-03, -1.76700e-03, -5.87500e-06,  4.00300e-04],
                           [-6.28500e-02, -9.86000e-03,  3.27300e-03,  1.30100e-03,  2.35600e-03, -1.95200e-04, -5.56700e-04,  1.17600e-04],
                           [-1.79400e-02, -9.47300e-03,  4.79500e-03, -8.25500e-04,  1.81000e-04,  3.35100e-04, -2.03500e-04, -4.19500e-05],
                           [ 1.26700e-02, -1.28800e-02, -2.25800e-03,  4.01500e-04,  3.42700e-04,  4.35700e-04, -3.13900e-05, -1.79600e-04],
                           [ 1.29400e-02,  1.99700e-03,  1.05200e-03, -5.44200e-05, -6.57100e-04, -1.01800e-04,  1.48000e-04,  3.75800e-05]])

# Reaction 7
chebyshev_reaction('O2 + bR (+ M) <=> bQOOHg (+ M)',
                   Tmin=180.0, Tmax=1500.0,
                   Pmin=(0.01, 'atm'), Pmax=(98.692, 'atm'),
                   coeffs=[[ 6.46100e+00, -4.16300e-01, -3.55000e-01,  2.01700e-02,  9.95800e-03, -4.09000e-03, -4.38200e-04,  9.48900e-04],
                           [ 1.05100e+00,  1.43600e+00, -1.01700e-02, -8.07100e-02, -6.36000e-03,  8.77200e-03,  2.47500e-04, -1.33200e-03],
                           [ 1.03200e-01,  6.55200e-01,  8.76600e-02, -3.55800e-02, -1.14000e-02,  7.39800e-04,  1.58200e-03,  1.09100e-04],
                           [ 1.68400e-02,  1.36800e-01,  8.95800e-02,  8.87800e-03, -1.21700e-02, -3.50500e-03,  1.58800e-03,  5.88100e-04],
                           [-2.65500e-02,  1.54100e-02,  3.43100e-02,  1.27100e-02, -5.69300e-04, -2.85400e-03, -7.99000e-04,  5.47000e-04],
                           [-4.29700e-02, -2.95800e-02,  9.76100e-03,  7.62500e-03,  2.21900e-03, -7.63400e-04, -8.68200e-04, -5.82500e-06],
                           [-2.68600e-02, -3.73300e-02,  2.41300e-03,  3.32600e-03,  1.02500e-03,  3.88500e-04, -2.47000e-04, -2.50400e-04],
                           [ 1.19000e-03, -2.10400e-02, -2.43100e-03,  1.84300e-03,  2.35500e-04,  1.59600e-04,  1.17900e-04, -9.81700e-05],
                           [ 9.35200e-03,  6.14900e-03, -5.80200e-03, -4.67100e-04,  8.50900e-04,  4.41900e-05, -9.94300e-05,  3.63800e-05],
                           [ 1.59400e-02, -2.51600e-03, -4.73900e-04,  5.28200e-04, -4.73700e-04, -4.07100e-05,  1.50300e-04, -1.85400e-05]])
#  bRO2(+M) <=> bQOOHa(+M)                             1.000e+00 0.000     0.000
#      TCHEB/ 180.000   1500.000 /
#      PCHEB/ 0.010     98.692   /
#      CHEB/ 10 8/
#      CHEB/ -2.325e+00   7.368e-01    -1.166e-01   -8.024e-03   1.276e-03   /
#      CHEB/ 4.947e-04    -8.615e-06   2.649e-06    7.555e+00    1.225e+00   /
#      CHEB/ -1.605e-01   -2.057e-02   1.755e-04    1.243e-03    1.272e-04   /
#      CHEB/ -1.932e-05   6.852e-01    6.881e-01    -2.058e-02   -2.305e-02  /
#      CHEB/ -4.940e-03   1.260e-03    4.498e-04    -2.965e-05   -3.216e-01  /
#      CHEB/ 2.460e-01    5.761e-02    -1.153e-02   -7.802e-03   6.701e-05   /
#      CHEB/ 6.272e-04    6.063e-05    -3.029e-01   6.171e-02    4.612e-02   /
#      CHEB/ 4.395e-03    -5.189e-03   -1.607e-03   3.504e-04    1.935e-04   /
#      CHEB/ -1.350e-01   3.648e-02    8.174e-03    9.614e-03    9.163e-05   /
#      CHEB/ -2.001e-03   -2.339e-04   1.988e-04    -5.117e-02   3.308e-02   /
#      CHEB/ -6.847e-03   4.640e-03    2.864e-03    -8.175e-04   -5.695e-04  /
#      CHEB/ 3.148e-05    -2.465e-02   1.290e-02    -2.181e-03   -5.908e-04  /
#      CHEB/ 2.018e-03    4.590e-04    -3.819e-04   -1.370e-04   -1.238e-02  /
#      CHEB/ -3.645e-03   2.697e-03    -1.619e-03   2.719e-04    7.155e-04   /
#      CHEB/ 4.309e-06    -1.442e-04   -3.782e-03   -5.816e-03   2.018e-03   /
#      CHEB/ -6.165e-04   -3.922e-04   2.933e-04    1.780e-04    -3.641e-05  /
#  bQOOHg(+M) <=> bQOOHa(+M)                           1.000e+00 0.000     0.000
#      TCHEB/ 180.000   1500.000 /
#      PCHEB/ 0.010     98.692   /
#      CHEB/ 10 8/
#      CHEB/ -3.389e+00   -1.733e-01   -3.220e-01   -5.284e-03   4.080e-03   /
#      CHEB/ 1.821e-04    -3.000e-05   4.602e-05    5.336e+00    2.490e+00   /
#      CHEB/ -2.421e-01   -7.005e-02   3.729e-03    3.113e-03    -8.221e-05  /
#      CHEB/ -4.193e-05   3.872e-01    8.978e-01    1.306e-01    -5.115e-02  /
#      CHEB/ -1.897e-02   3.413e-03    1.513e-03    -2.192e-04   -3.418e-01  /
#      CHEB/ 2.113e-01    1.254e-01    6.768e-03    -1.530e-02   -3.631e-03  /
#      CHEB/ 1.520e-03    4.482e-04    -1.848e-01   6.836e-02    3.316e-02   /
#      CHEB/ 1.955e-02    2.013e-04    -4.552e-03   -5.632e-04   5.321e-04   /
#      CHEB/ -1.046e-01   1.782e-02    2.695e-03    8.229e-03    4.341e-03   /
#      CHEB/ -8.168e-04   -1.064e-03   -6.723e-05   -6.123e-02   -1.593e-02  /
#      CHEB/ 3.256e-03    5.024e-04    1.984e-03    8.714e-04    -2.917e-04  /
#      CHEB/ -2.337e-04   -1.248e-02   -1.961e-02   3.094e-03    -1.079e-03  /
#      CHEB/ 2.661e-04    5.744e-04    1.152e-04    -5.384e-05   1.726e-02   /
#      CHEB/ -9.677e-03   4.558e-04    -2.773e-04   -2.827e-04   1.125e-04   /
#      CHEB/ 1.078e-04    2.829e-05    1.554e-02    -3.303e-03   -5.626e-04  /
#      CHEB/ 4.320e-04    -3.510e-04   -5.692e-05   4.049e-05    1.230e-05   /

# Reaction 8
chebyshev_reaction('bQOOH[O] (+ M) <=> bQOOHa (+ M)',
                   Tmin=180.0, Tmax=1500.0,
                   Pmin=(0.01, 'atm'), Pmax=(98.692, 'atm'),
                   coeffs=[[ 2.74400e+00,  6.52000e-01, -3.97700e-01, -5.62900e-02, -5.06400e-03,  7.04500e-03,  2.83700e-03, -2.65700e-04],
                           [ 1.89000e+00,  1.56300e+00, -4.76100e-02, -2.74800e-02, -2.27500e-03, -5.36200e-03, -1.32600e-03,  8.59400e-04],
                           [ 3.15900e-02,  6.73100e-01,  9.88700e-02, -1.80400e-02, -1.05600e-02, -1.15600e-05, -6.56900e-04, -2.30100e-04],
                           [-2.72300e-01,  2.55000e-01,  7.21500e-02,  1.35100e-02, -9.38700e-03, -2.52600e-03,  6.55800e-04, -5.13900e-05],
                           [-2.04500e-01,  1.01200e-01,  1.82000e-02,  1.53700e-02,  1.77700e-03, -3.07500e-03, -3.02900e-04,  2.45000e-04],
                           [-1.35600e-01,  3.97200e-02,  4.84700e-03,  3.45900e-03,  4.63200e-03, -5.55300e-04, -8.62900e-04,  7.40200e-05],
                           [-8.11000e-02,  1.28100e-03,  3.65000e-03, -1.65300e-03,  2.36900e-03,  1.17200e-03, -4.20100e-04, -2.48400e-04],
                           [-2.98300e-02, -2.02400e-03,  4.39500e-03, -1.26000e-03, -6.04600e-04,  7.14500e-04,  2.32300e-04, -1.11000e-04],
                           [ 9.10700e-03, -9.90700e-03, -1.34700e-03,  2.41800e-04, -9.49700e-05,  2.77100e-04,  1.94500e-04, -6.23800e-05],
                           [ 9.51600e-03,  2.83600e-03,  7.06100e-04,  2.24500e-04, -6.73200e-04, -2.86700e-04,  1.57600e-04,  1.15600e-04]])

# Reaction 9
chebyshev_reaction('O2 + bR (+ M) <=> bQOOHa (+ M)',
                   Tmin=180.0, Tmax=1500.0,
                   Pmin=(0.01, 'atm'), Pmax=(98.692, 'atm'),
                   coeffs=[[ 8.22500e+00, -2.78000e-01, -3.50000e-01, -1.68900e-03,  1.40300e-02, -8.12900e-04, -2.20800e-03,  5.71400e-04],
                           [ 1.60900e-01,  1.35500e+00,  3.57400e-02, -6.37100e-02, -1.85600e-02,  6.25700e-03,  2.98500e-03, -1.32600e-03],
                           [-1.40100e-01,  5.59400e-01,  8.96200e-02, -9.00600e-03, -1.17100e-02, -4.89300e-03,  1.59400e-03,  1.09500e-03],
                           [-9.75800e-02,  1.83200e-01,  6.11600e-02,  8.23800e-03, -1.39600e-03, -3.45500e-03, -1.29200e-03,  5.46400e-04],
                           [-6.36000e-02,  3.17400e-02,  2.90300e-02,  8.48200e-03,  1.74700e-03, -4.00000e-04, -1.10500e-03, -3.25000e-04],
                           [-6.10500e-02, -2.17000e-02,  1.22500e-02,  4.47600e-03,  1.41600e-03,  6.43500e-04, -1.90400e-04, -3.50400e-04],
                           [-4.14800e-02, -3.03000e-02,  4.15700e-03,  1.99200e-03,  4.59600e-04,  4.79400e-04,  2.02900e-04, -8.39200e-05],
                           [-6.98700e-03, -1.79000e-02, -9.49300e-04,  1.09400e-03,  7.27000e-06,  1.22800e-04,  1.70700e-04,  5.54200e-05],
                           [ 1.41300e-02, -4.19700e-03, -2.95100e-03,  5.92000e-04, -2.71400e-05, -6.45900e-05,  5.62200e-05,  5.79200e-05],
                           [ 1.16900e-02,  2.14200e-03, -2.27100e-03,  4.51000e-05,  6.36200e-05, -5.93100e-05, -2.08000e-05,  1.71200e-05]])
#  bRO2(+M) <=> bQOOH[O](+M)                           1.000e+00 0.000     0.000
#      TCHEB/ 180.000   1500.000 /
#      PCHEB/ 0.010     98.692   /
#      CHEB/ 10 8/
#      CHEB/ -3.073e+00   1.787e+00    -2.277e-01   -6.539e-02   -6.033e-03  /
#      CHEB/ 6.514e-03    2.925e-03    -4.376e-05   9.641e+00    4.597e-01   /
#      CHEB/ 3.039e-02    1.373e-02    -9.603e-03   -5.933e-03   -8.016e-04  /
#      CHEB/ 9.178e-04    -4.999e-01   2.911e-01    -4.235e-03   1.049e-02   /
#      CHEB/ 3.956e-04    -1.738e-03   -1.224e-03   -2.473e-04   -3.354e-01  /
#      CHEB/ 2.062e-01    5.502e-05    4.086e-03    7.235e-04    -6.292e-04  /
#      CHEB/ -5.274e-04   -1.998e-04   -2.138e-01   1.266e-01    5.684e-03   /
#      CHEB/ 8.134e-04    8.331e-04    -1.806e-04   -2.569e-04   -1.431e-04  /
#      CHEB/ -1.258e-01   6.614e-02    8.560e-03    -6.667e-04   4.694e-04   /
#      CHEB/ 5.890e-05    -5.451e-05   -7.284e-05   -5.975e-02   2.262e-02   /
#      CHEB/ 6.257e-03    -6.062e-04   4.851e-04    2.650e-04    4.453e-06   /
#      CHEB/ -6.689e-05   -3.374e-02   9.461e-03    6.000e-03    -4.235e-04  /
#      CHEB/ -4.246e-04   5.837e-05    1.346e-04    4.417e-05    -6.174e-03  /
#      CHEB/ -5.044e-03   8.295e-04    4.365e-04    1.960e-04    1.291e-04   /
#      CHEB/ 1.156e-05    -1.702e-05   -8.348e-03   1.113e-03    1.431e-03   /
#      CHEB/ 2.907e-04    -3.993e-04   -1.165e-04   7.032e-05    6.007e-05   /
#  bQOOHg(+M) <=> bQOOH[O](+M)                         1.000e+00 0.000     0.000
#      TCHEB/ 180.000   1500.000 /
#      PCHEB/ 0.010     98.692   /
#      CHEB/ 10 8/
#      CHEB/ -2.690e+00   5.826e-01    -3.758e-01   -6.225e-02   -1.792e-03  /
#      CHEB/ 6.866e-03    2.534e-03    -2.877e-04   4.925e+00    1.661e+00   /
#      CHEB/ -1.029e-01   -9.778e-03   -3.407e-03   -5.425e-03   -1.396e-03  /
#      CHEB/ 8.075e-04    1.383e-01    8.121e-01    6.381e-02    -2.636e-02  /
#      CHEB/ -4.708e-03   5.509e-05    -8.955e-04   -2.392e-04   -3.086e-01  /