units(length='cm', time='s', quantity='mol', act_energy='kcal/mol')

ideal_gas(name='gas',
          elements="H D T C Ci O Oi N Ne Ar He Si S F Cl Br I X",
          species="""aOOHbalkene      OH               ibutanal
                     aR               performic_acid   disub_c4ether
                     aQOOHb           H                aadduct
                     trisub_epoxy     ibutenol         aQOOH[O]
                     ipropyl          aRO2             O2
                     formic_acid      propene          aQOOHg
                     ibut_peroxyacid  HO2              CH3""",
          reactions='all',
          initial_state=state(temperature=300.0, pressure=OneAtm))

#-------------------------------------------------------------------------------
# Element data
#-------------------------------------------------------------------------------

element(symbol='Ci', atomic_mass=13.003)
element(symbol='D', atomic_mass=2.014)
element(symbol='Oi', atomic_mass=18.0)
element(symbol='T', atomic_mass=3.016)
element(symbol='X', atomic_mass=195.083)
#-------------------------------------------------------------------------------
# Species data
#-------------------------------------------------------------------------------

species(name='aOOHbalkene',
        atoms='C:3 H:6 O:3',
        thermo=(NASA([10.00, 497.41],
                     [ 3.76691735E+00,  1.51417956E-02,  1.85499431E-04,
                      -4.61303214E-07,  3.27678941E-10, -3.29811794E+04,
                       1.09903968E+01]),
                NASA([497.41, 3000.00],
                     [ 6.20882781E+00,  4.08866173E-02, -2.89934946E-05,
                       9.60428979E-09, -1.19355432E-12, -3.37855087E+04,
                      -4.72842811E+00])))

species(name='OH',
        atoms='H:1 O:1',
        thermo=(NASA([10.00, 984.14],
                     [ 3.49686242E+00,  1.83973160E-04, -9.97634499E-07,
                       1.56942783E-09, -6.10128175E-13,  3.41673934E+03,
                       1.48093120E+00]),
                NASA([984.14, 3000.00],
                     [ 3.45221464E+00, -2.95124034E-04,  7.39418622E-07,
                      -2.89309866E-10,  3.53041498E-14,  3.45751599E+03,
                       1.85813897E+00])))

species(name='ibutanal',
        atoms='C:4 H:8 O:1',
        thermo=(NASA([10.00, 683.88],
                     [ 3.57157346E+00,  3.36936906E-02, -1.78475021E-05,
                       1.31946716E-08, -7.58008388E-12, -2.71490268E+04,
                       1.05595084E+01]),
                NASA([683.88, 3000.00],
                     [ 1.29043622E+00,  4.14804229E-02, -2.27411206E-05,
                       6.08619500E-09, -6.38995128E-13, -2.67071077E+04,
                       2.16477430E+01])))

species(name='aR',
        atoms='C:4 H:9 O:1',
        thermo=(NASA([10.00, 455.22],
                     [ 3.59625500E+00,  3.38947981E-02,  7.37257079E-06,
                      -3.99275335E-08,  2.49019944E-11, -1.38362881E+04,
                       1.18269265E+01]),
                NASA([455.22, 3000.00],
                     [ 2.49586309E+00,  4.35639890E-02, -2.44887770E-05,
                       6.73363769E-09, -7.23862433E-13, -1.37361050E+04,
                       1.62696907E+01])))

species(name='performic_acid',
        atoms='C:1 H:2 O:3',
        thermo=(NASA([10.00, 590.95],
                     [ 3.92633851E+00,  4.24517168E-03,  6.71106764E-05,
                      -1.36545385E-07,  8.03337864E-11, -3.63028176E+04,
                       8.06485813E+00]),
                NASA([590.95, 3000.00],
                     [ 4.39992934E+00,  1.85411415E-02, -1.36005501E-05,
                       4.62292431E-09, -5.88463603E-13, -3.66643888E+04,
                       3.44353230E+00])))

species(name='disub_c4ether',
        atoms='C:4 H:8 O:2',
        thermo=(NASA([10.00, 413.50],
                     [ 3.78241323E+00,  1.89501763E-02,  8.65302396E-05,
                      -1.80580575E-07,  1.13656264E-10, -4.05866000E+04,
                       1.09982450E+01]),
                NASA([413.50, 3000.00],
                     [ 4.29420885E-01,  5.13851903E-02, -3.11292293E-05,
                       9.11498284E-09, -1.03192718E-12, -4.03093057E+04,
                       2.42134976E+01])))

species(name='aQOOHb',
        atoms='C:4 H:9 O:3',
        thermo=(NASA([10.00, 412.78],
                     [ 3.15498836E+00,  8.55068303E-02, -2.35307993E-04,
                       4.71983261E-07, -3.62709267E-10, -2.73036759E+04,
                       1.52522123E+01]),
                NASA([412.78, 3000.00],
                     [ 4.18099845E+00,  5.26168288E-02, -3.23998410E-05,
                       9.59389339E-09, -1.09464519E-12, -2.71928810E+04,
                       1.35782328E+01])))

species(name='H',
        atoms='H:1',
        thermo=(NASA([10.00, 794.01],
                     [ 2.50000000E+00,  1.99051163E-15, -1.19089508E-17,
                       2.10805655E-20, -1.11017699E-23,  2.54725594E+04,
                      -4.61279342E-01]),
                NASA([794.01, 3000.00],
                     [ 2.50000000E+00,  1.52667235E-14, -1.58445285E-17,
                       6.63088600E-21, -9.62111674E-25,  2.54725594E+04,
                      -4.61279342E-01])))

species(name='aadduct',
        atoms='C:4 H:9 O:3',
        thermo=(NASA([10.00, 449.84],
                     [ 3.06901904E+00,  9.20724491E-02, -2.68085092E-04,
                       5.15249897E-07, -3.68046586E-10, -2.95570605E+04,
                       1.46591735E+01]),
                NASA([449.84, 3000.00],
                     [ 4.11210745E+00,  5.16955724E-02, -2.97401041E-05,
                       8.32758939E-09, -9.08861448E-13, -2.93362195E+04,
                       1.39578825E+01])))

species(name='trisub_epoxy',
        atoms='C:4 H:8 O:2',
        thermo=(NASA([10.00, 209.19],
                     [ 3.75295042E+00,  2.37546930E-02,  1.26610110E-04,
                      -4.78364365E-07,  5.79468168E-10, -4.10384438E+04,
                       1.12739684E+01]),
                NASA([209.19, 3000.00],
                     [ 2.64185254E+00,  4.50006531E-02, -2.57361066E-05,
                       7.15266054E-09, -7.72980731E-13, -4.09919582E+04,
                       1.48960343E+01])))

species(name='ibutenol',
        atoms='C:4 H:8 O:1',
        thermo=(NASA([10.00, 135.97],
                     [ 3.95714996E+00,  5.72646980E-03,  4.63611760E-04,
                      -3.04137514E-06,  6.85019471E-09, -2.35038555E+04,
                       8.21931848E+00]),
                NASA([135.97, 3000.00],
                     [ 3.32467612E+00,  3.69033556E-02, -1.89960416E-05,
                       4.73417677E-09, -4.59705291E-13, -2.34982768E+04,
                       9.58133237E+00])))

species(name='aQOOH[O]',
        atoms='C:4 H:9 O:3',
        thermo=(NASA([10.00, 488.36],
                     [ 3.54559533E+00,  3.89536133E-02,  8.47689703E-05,
                      -2.45147486E-07,  1.76157259E-10, -2.41890897E+04,
                       1.34685910E+01]),
                NASA([488.36, 3000.00],
                     [ 3.94214913E+00,  5.71928314E-02, -3.72516212E-05,
                       1.15209013E-08, -1.35808341E-12, -2.44840507E+04,
                       9.21628964E+00])))

species(name='ipropyl',
        atoms='C:3 H:7',
        thermo=(NASA([10.00, 421.76],
                     [ 3.73943775E+00,  3.10070157E-02, -1.51196908E-04,
                       4.35367329E-07, -3.85565052E-10,  9.49213457E+03,
                       7.79448918E+00]),
                NASA([421.76, 3000.00],
                     [-4.74526725E-01,  3.20862468E-02, -1.67340747E-05,
                       4.21365136E-09, -4.13155573E-13,  1.01934458E+04,
                       2.85865912E+01])))

species(name='aRO2',
        atoms='C:4 H:9 O:3',
        thermo=(NASA([10.00, 670.36],
                     [ 3.45405325E+00,  4.74751311E-02,  9.77507759E-06,
                      -6.31019603E-08,  3.75500067E-11, -3.20219802E+04,
                       1.39284976E+01]),
                NASA([670.36, 3000.00],
                     [ 5.04137652E+00,  5.19952978E-02, -3.16472789E-05,
                       9.22798587E-09, -1.03598915E-12, -3.25491727E+04,
                       4.56056770E+00])))

species(name='O2',
        atoms='O:2',
        thermo=(NASA([10.00, 605.96],
                     [ 3.50743498E+00, -4.43860349E-04,  1.45938058E-06,
                       1.61509333E-09, -2.32050052E-12, -9.24756224E+02,
                       4.72183634E+00]),
                NASA([605.96, 3000.00],
                     [ 2.87462882E+00,  2.17840991E-03, -1.18262921E-06,
                       2.86910493E-10, -2.53297146E-14, -8.19517838E+02,
                       7.69331810E+00])))

species(name='formic_acid',
        atoms='C:1 H:2 O:2',
        thermo=(NASA([10.00, 741.38],
                     [ 4.06855785E+00, -4.74562133E-03,  4.71797900E-05,
                      -6.07490052E-08,  2.51286794E-11, -4.66880837E+04,
                       6.53681035E+00]),
                NASA([741.38, 3000.00],
                     [ 1.13645847E+00,  1.74953124E-02, -1.08112403E-05,
                       3.08075326E-09, -3.34892658E-13, -4.64297918E+04,
                       1.86149484E+01])))

species(name='propene',
        atoms='C:3 H:6',
        thermo=(NASA([10.00, 519.53],
                     [ 3.98723879E+00,  4.72040503E-04,  6.51776229E-05,
                      -9.89891002E-08,  4.91141123E-11,  2.90623624E+03,
                       6.98071210E+00]),
                NASA([519.53, 3000.00],
                     [ 3.79893331E-01,  2.82457690E-02, -1.50108430E-05,
                       3.90894069E-09, -4.00521928E-13,  3.28106359E+03,
                       2.20218922E+01])))

species(name='aQOOHg',
        atoms='C:4 H:9 O:3',
        thermo=(NASA([10.00, 455.48],
                     [ 3.62522127E+00,  2.83222320E-02,  2.08527447E-04,
                      -5.67427418E-07,  4.35169138E-10, -2.57767564E+04,
                       1.26617758E+01]),
                NASA([455.48, 3000.00],
                     [ 5.13914202E+00,  5.96270859E-02, -4.14435328E-05,
                       1.34202375E-08, -1.63474553E-12, -2.63773127E+04,
                       1.46991116E+00])))

species(name='ibut_peroxyacid',
        atoms='C:4 H:8 O:3',
        thermo=(NASA([10.00, 1386.21],
                     [ 3.50995385E+00,  4.78670384E-02, -2.40781384E-05,
                       3.71046938E-09,  3.85442115E-13, -5.19494935E+04,
                       1.22017268E+01]),
                NASA([1386.21, 3000.00],
                     [ 1.24543146E+01,  3.02396862E-02, -1.38577031E-05,
                       3.05328904E-09, -2.63982457E-13, -5.52153768E+04,
                      -3.67061828E+01])))

species(name='HO2',
        atoms='H:1 O:2',
        thermo=(NASA([10.00, 891.11],
                     [ 4.02887004E+00, -1.75769289E-03,  1.08726004E-05,
                      -1.13812972E-08,  3.90113097E-12,  4.95165001E+02,
                       4.69302008E+00]),
                NASA([891.11, 3000.00],
                     [ 3.06571044E+00,  4.28505005E-03, -2.19325920E-06,
                       5.58882699E-10, -5.61246669E-14,  5.98557610E+02,
                       8.84564156E+00])))

species(name='CH3',
        atoms='C:1 H:3',
        thermo=(NASA([10.00, 616.77],
                     [ 3.98929952E+00,  5.45150461E-04,  9.01320092E-06,
                      -1.08320497E-08,  4.38985879E-12,  1.65859883E+04,
                       2.22446886E-01]),
                NASA([616.77, 3000.00],
                     [ 3.35928237E+00,  4.63117126E-03, -9.24365433E-07,
                      -9.02514624E-11,  3.56905106E-14,  1.66637014E+04,
                       2.95743732E+00])))

#-------------------------------------------------------------------------------
# Reaction data
#-------------------------------------------------------------------------------

# Reaction 1
chebyshev_reaction('aQOOH[O] (+ M) <=> aQOOHb (+ M)',
                   Tmin=180.0, Tmax=1500.0,
                   Pmin=(0.01, 'atm'), Pmax=(98.692, 'atm'),
                   coeffs=[[-3.75200e+00,  2.84300e+00, -2.85800e-01,  1.42300e-03, -1.38700e-02,  5.21300e-03,  1.31500e-03, -5.64500e-05],
                           [-5.44700e+00,  1.29500e+00,  2.37100e-01, -3.81300e-03,  1.64900e-02, -4.03100e-03, -1.00300e-03,  2.16200e-05],
                           [-3.49200e+00,  6.80100e-02,  2.88800e-02, -2.63200e-02,  2.71000e-04,  3.89600e-03,  7.15900e-04, -1.68500e-04],
                           [-1.64900e+00, -1.05500e-01, -3.96900e-02, -1.44500e-02, -4.79700e-03, -2.42100e-04,  8.91600e-04,  3.27800e-04],
                           [-7.00000e-01, -4.93900e-02, -3.52500e-02, -1.11300e-02, -3.91800e-03, -1.19500e-03, -2.07300e-04,  1.56600e-04],
                           [-2.74500e-01,  8.86400e-03, -3.79100e-03, -5.13000e-03, -3.68200e-03, -8.21800e-04, -2.94900e-04, -2.01700e-04],
                           [-1.00600e-01,  1.25700e-02,  2.17600e-02, -2.54600e-04, -5.66100e-04, -3.36600e-04, -4.28700e-04, -7.47700e-05],
                           [-3.46100e-02,  1.40000e-02,  5.48900e-03,  1.01000e-02,  6.65400e-04, -3.34500e-04,  2.09100e-04, -1.40700e-04],
                           [-3.30100e-03, -1.71300e-02,  8.49100e-03,  3.84900e-04,  2.90300e-03,  1.01800e-03, -3.74700e-04,  1.08000e-04],
                           [-1.47100e-02,  1.51500e-03, -1.46800e-02,  4.45500e-03, -2.44700e-04,  1.23900e-04,  6.71200e-04, -6.82300e-05]])

# Reaction 2
chebyshev_reaction('aQOOHg (+ M) <=> aQOOHb (+ M)',
                   Tmin=180.0, Tmax=1500.0,
                   Pmin=(0.01, 'atm'), Pmax=(98.692, 'atm'),
                   coeffs=[[-5.88200e+00,  1.86600e+00, -1.20200e-01, -5.26200e-02, -1.46300e-02,  1.65300e-03,  1.84500e-03, -5.07800e-05],
                           [-3.98800e+00,  2.18700e+00,  4.54000e-01, -3.30200e-04, -1.61800e-02, -5.61500e-03, -1.58600e-03,  3.58800e-04],
                           [-3.86000e+00, -3.62800e-01,  1.06600e-01,  8.03900e-02,  3.77300e-03, -1.66900e-03, -3.42400e-04, -4.84500e-04],
                           [-2.03700e+00, -7.06100e-01, -2.05100e-01,  4.79700e-02,  2.26600e-02, -1.82100e-03, -1.13900e-03,  1.56800e-04],
                           [-7.67600e-01, -2.43700e-01, -2.08800e-01, -2.99800e-02,  1.54600e-02,  4.94600e-03, -9.36100e-04, -3.79000e-04],
                           [-2.00600e-01,  8.03300e-02, -5.74100e-02, -4.38600e-02, -8.81800e-03,  4.17400e-03,  1.62000e-03, -1.92100e-04],
                           [-3.51000e-02,  1.18300e-01,  3.98400e-02, -6.54600e-03, -1.45400e-02, -2.70700e-03,  1.62500e-03,  5.11000e-04],
                           [-1.41200e-02,  3.99200e-02,  3.75700e-02,  1.91900e-02, -2.04700e-03, -4.40100e-03, -6.16700e-04,  5.33300e-04],
                           [-1.41500e-02, -2.39100e-02, -8.92500e-04,  1.27300e-02,  7.75400e-03, -1.34700e-04, -1.47100e-03, -2.04200e-04],
                           [-1.93500e-02, -2.58800e-02, -1.79200e-02, -2.55600e-03,  4.22900e-03,  2.84000e-03, -5.96100e-05, -5.40200e-04]])

# Reaction 3
chebyshev_reaction('aRO2 (+ M) <=> aQOOHb (+ M)',
                   Tmin=180.0, Tmax=1500.0,
                   Pmin=(0.01, 'atm'), Pmax=(98.692, 'atm'),
                   coeffs=[[-7.47900e+00,  2.93200e+00, -2.20600e-01, -1.22700e-01,  5.26600e-02,  1.58100e-02, -1.21200e-02, -6.06700e-04],
                           [ 1.58200e+00,  8.38600e-02,  4.85300e-01,  1.36500e-01, -6.81600e-02, -7.70900e-03,  1.48800e-02, -2.36200e-03],
                           [-3.16400e+00, -2.31300e-01, -4.42800e-02,  6.15600e-02,  2.32800e-02, -5.21700e-03, -1.48900e-03,  1.16500e-03],
                           [-1.56000e+00, -2.90900e-01, -1.42000e-01, -1.54400e-02,  1.12900e-02,  1.48200e-03,  9.26400e-05,  7.21800e-04],
                           [-7.13400e-01, -8.37000e-02, -7.46100e-02, -3.81700e-02, -7.55900e-03,  1.12800e-03, -2.08300e-05,  7.01400e-04],
                           [-2.50200e-01,  3.13500e-02, -3.64300e-03, -1.13600e-02, -1.07400e-02, -3.03400e-03,  2.08500e-04,  2.57400e-04],
                           [-7.69400e-02,  5.83100e-02,  2.42400e-02,  6.94200e-03, -2.85300e-03, -2.37700e-03, -7.07500e-04, -1.13600e-04],
                           [-7.76000e-02,  7.59900e-02,  1.25800e-02,  4.02600e-03,  4.37100e-03,  6.62400e-04, -9.22200e-04, -4.02700e-04],
                           [ 1.49000e-02, -2.26300e-02,  3.47800e-03,  7.49900e-03,  3.40900e-03, -3.35500e-04,  5.05100e-04,  1.44900e-04],
                           [-3.27500e-02,  3.74200e-03, -6.74800e-03, -3.56800e-03,  4.80600e-04,  1.99700e-03,  1.76500e-04, -1.78800e-04]])

# Reaction 4
chebyshev_reaction('aadduct (+ M) <=> aQOOHb (+ M)',
                   Tmin=180.0, Tmax=1500.0,
                   Pmin=(0.01, 'atm'), Pmax=(98.692, 'atm'),
                   coeffs=[[-1.04300e+01,  2.74800e+00, -4.34600e-01, -1.87300e-01,  7.14100e-02,  2.78700e-02, -1.49500e-02, -3.29400e-03],
                           [-5.44100e+00, -2.99600e-01,  4.70200e-01,  2.18800e-01, -5.29900e-02, -1.85500e-02,  1.27800e-02, -2.21100e-03],
                           [-4.50700e+00,  5.31000e-02,  1.30600e-02,  6.04900e-02,  2.17400e-02, -7.63100e-03, -3.02900e-03,  1.14500e-03],
                           [-2.00700e+00, -6.54700e-02, -6.46600e-02, -1.21700e-02,  4.53100e-03,  6.89900e-04,  6.22500e-04,  1.74300e-04],
                           [-8.92700e-01, -4.59700e-02, -5.11700e-02, -3.13100e-02, -7.49700e-03,  8.51800e-04, -4.13100e-04,  3.29500e-04],
                           [-3.34000e-01,  6.57200e-02,  2.48900e-02,  1.03700e-03, -1.12000e-02, -6.05400e-03, -1.31500e-03,  3.80000e-04],
                           [-1.46000e-01,  9.80900e-02,  4.64600e-02,  1.37700e-02, -4.63100e-03, -4.70600e-03, -1.31800e-03,  2.47300e-04],
                           [-9.17200e-02,  9.80500e-02,  2.06800e-02,  5.88400e-03,  4.00900e-03, -1.29800e-04, -1.19200e-03, -4.31600e-04],
                           [-9.04900e-03,  2.03300e-03,  1.30600e-02,  8.65500e-03,  2.76900e-03, -1.40300e-03,  1.13700e-04,  1.69500e-04],
                           [-2.39300e-02,  1.02600e-02, -3.20700e-03, -4.26300e-03, -7.52900e-04,  1.42900e-03,  1.89500e-04,  9.25900e-05]])

# Reaction 5
chebyshev_reaction('O2 + aR (+ M) <=> aQOOHb (+ M)',
                   Tmin=180.0, Tmax=1500.0,
                   Pmin=(0.01, 'atm'), Pmax=(98.692, 'atm'),
                   coeffs=[[-2.25400e-01,  9.75800e+00, -8.72800e-01, -8.95900e-01,  1.71900e-01,  9.17000e-02, -1.54200e-02, -6.21900e-03],
                           [-8.41900e-01, -3.96000e+00,  1.57900e+00,  6.23900e-01, -2.93300e-01, -7.10600e-02,  1.50000e-02,  8.55400e-03],
                           [-1.27900e+00, -1.17300e+00,  1.10600e-01,  2.62700e-01, -4.65800e-02, -3.20400e-02,  3.40100e-02, -9.66200e-03],
                           [-7.13600e-01, -6.14700e-01, -3.47000e-02, -4.53500e-02,  7.32300e-02, -3.95400e-04, -2.49500e-02,  1.42100e-02],
                           [-4.23800e-01, -4.99000e-02, -1.69500e-01, -2.16600e-04,  1.97900e-02, -4.41000e-03, -1.93800e-03,  1.37000e-03],
                           [-1.40900e-01,  2.05500e-02, -6.64700e-02,  1.44700e-02, -1.73700e-02,  2.67700e-03,  6.31200e-03, -6.32000e-03],
                           [-1.53700e-02, -5.40200e-03,  2.82900e-02, -1.12000e-02, -1.35800e-03,  2.03700e-03, -2.64300e-03,  6.54500e-04],
                           [-6.17500e-03,  9.63000e-03,  1.86600e-02, -2.39100e-03,  6.66800e-03, -1.64700e-03, -2.40500e-03,  2.18300e-03],
                           [-1.08500e-02,  9.18300e-03, -4.61900e-03,  4.70600e-03,  3.86300e-03, -5.30100e-04,  7.08000e-05, -2.46100e-04],
                           [-7.81700e-03, -4.80200e-03, -8.42500e-03,  4.32700e-03, -1.37600e-03,  4.73900e-04,  2.34000e-03, -1.85100e-03]])
#  aQOOHb(+M) <=> aQOOH[O](+M)                         1.000e+00 0.000     0.000
#      TCHEB/ 180.000   1500.000 /
#      PCHEB/ 0.010     98.692   /
#      CHEB/ 10 8/
#      CHEB/ -9.454e+00   2.843e+00    -2.858e-01   1.423e-03    -1.387e-02  /
#      CHEB/ 5.213e-03    1.315e-03    -5.645e-05   -2.319e+00   1.295e+00   /
#      CHEB/ 2.371e-01    -3.813e-03   1.649e-02    -4.031e-03   -1.003e-03  /
#      CHEB/ 2.162e-05    -3.414e+00   6.801e-02    2.888e-02    -2.632e-02  /
#      CHEB/ 2.710e-04    3.896e-03    7.159e-04    -1.685e-04   -1.603e+00  /
#      CHEB/ -1.055e-01   -3.969e-02   -1.445e-02   -4.797e-03   -2.421e-04  /
#      CHEB/ 8.916e-04    3.278e-04    -6.846e-01   -4.939e-02   -3.525e-02  /
#      CHEB/ -1.113e-02   -3.918e-03   -1.195e-03   -2.073e-04   1.566e-04   /
#      CHEB/ -2.697e-01   8.864e-03    -3.791e-03   -5.130e-03   -3.682e-03  /
#      CHEB/ -8.218e-04   -2.949e-04   -2.017e-04   -9.881e-02   1.257e-02   /
#      CHEB/ 2.176e-02    -2.546e-04   -5.661e-04   -3.366e-04   -4.287e-04  /
#      CHEB/ -7.477e-05   -3.390e-02   1.400e-02    5.489e-03    1.010e-02   /
#      CHEB/ 6.654e-04    -3.345e-04   2.091e-04    -1.407e-04   -3.107e-03  /
#      CHEB/ -1.713e-02   8.491e-03    3.849e-04    2.903e-03    1.018e-03   /
#      CHEB/ -3.747e-04   1.080e-04    -1.470e-02   1.515e-03    -1.468e-02  /
#      CHEB/ 4.455e-03    -2.447e-04   1.239e-04    6.712e-04    -6.823e-05  /

# Reaction 6
chebyshev_reaction('aQOOHg (+ M) <=> aQOOH[O] (+ M)',
                   Tmin=180.0, Tmax=1500.0,
                   Pmin=(0.01, 'atm'), Pmax=(98.692, 'atm'),
                   coeffs=[[-5.67300e+00,  2.54800e+00, -2.52200e-01,  3.81000e-02, -2.03200e-02,  4.43100e-03,  1.81100e-03, -6.14200e-04],
                           [-4.74100e+00,  1.01200e+00,  1.25300e-01,  3.05100e-03,  3.61600e-02, -8.81800e-03, -3.26200e-03,  1.16200e-03],
                           [-4.01900e+00, -3.14900e-01, -1.06900e-02, -7.17600e-03, -9.79100e-05,  6.94900e-03,  9.33400e-04, -1.02900e-03],
                           [-1.86400e+00, -2.82400e-01, -9.47100e-02, -9.90500e-03, -1.75400e-03, -7.73900e-04,  1.60200e-03,  4.51700e-04],
                           [-7.16600e-01, -3.07400e-02, -6.90200e-02, -2.15300e-02,  3.69100e-04, -1.21600e-03, -9.10600e-04,  5.56600e-04],
                           [-2.39000e-01,  9.11500e-02,  6.53000e-03, -1.63000e-02, -5.93900e-03, -1.01400e-04, -4.17400e-04, -3.73600e-04],
                           [-7.40300e-02,  5.04800e-02,  5.56400e-02,  2.67000e-03, -6.85500e-03, -8.79200e-04,  2.16500e-04, -3.07000e-04],
                           [-6.67200e-02,  4.71900e-02,  5.56500e-03,  1.90400e-02,  4.37800e-03, -3.53000e-03, -2.70800e-04,  6.11900e-04],
                           [ 9.42100e-03, -7.73300e-02,  1.40400e-02,  5.07000e-03,  3.15800e-03,  3.05400e-03, -7.42600e-04, -6.58600e-04],
                           [-5.45300e-02,  3.18500e-02, -4.28200e-02, -1.64300e-03,  6.50300e-03,  5.27600e-04,  6.76100e-05,  1.85200e-04]])

# Reaction 7
chebyshev_reaction('aRO2 (+ M) <=> aQOOH[O] (+ M)',
                   Tmin=180.0, Tmax=1500.0,
                   Pmin=(0.01, 'atm'), Pmax=(98.692, 'atm'),
                   coeffs=[[-9.13100e+00,  5.87400e+00, -2.54400e-01, -4.03500e-01,  3.12100e-02,  6.77400e-02, -1.21200e-02, -1.04600e-02],
                           [ 2.71600e+00, -1.09500e+00,  4.51900e-01,  3.24200e-01, -1.02600e-01, -6.27800e-02,  2.86500e-02,  8.96400e-03],
                           [-3.69300e+00, -3.38200e-01, -5.91000e-02,  3.96000e-02,  2.93700e-02, -8.03900e-03, -9.52400e-03,  3.14800e-03],
                           [-1.66900e+00, -1.42500e-01, -7.83400e-02,  4.44500e-03,  1.18800e-02, -9.18600e-04, -1.60700e-03, -5.58900e-04],
                           [-6.96000e-01, -2.93800e-02, -1.97300e-02, -1.12400e-02,  2.31300e-03,  1.47000e-03, -1.57900e-03,  1.65300e-04],
                           [-2.94600e-01,  1.73200e-02,  5.12400e-03, -2.59900e-03, -2.46700e-03,  7.13300e-04, -7.12900e-06, -4.40500e-04],
                           [-1.21500e-01,  4.09500e-03,  1.05800e-02,  4.08400e-03, -5.49800e-04,  1.64200e-04, -2.58700e-04, -1.80800e-04],
                           [-5.66700e-02,  1.36700e-02, -3.41500e-03,  6.11400e-03,  1.52000e-03, -1.80000e-03,  8.52200e-04,  3.50600e-04],
                           [-1.94000e-02,  2.95400e-03,  3.86800e-03, -7.58600e-03,  2.26500e-03,  2.82400e-03, -1.17500e-03, -5.89600e-04],
                           [-1.17700e-02,  2.75200e-03, -1.06400e-02,  3.19700e-03,  6.12100e-04, -2.00100e-03,  6.38300e-04,  6.39900e-04]])

# Reaction 8
chebyshev_reaction('aadduct (+ M) <=> aQOOH[O] (+ M)',
                   Tmin=180.0, Tmax=1500.0,
                   Pmin=(0.01, 'atm'), Pmax=(98.692, 'atm'),
                   coeffs=[[-1.20700e+01,  5.63400e+00, -4.74300e-01, -4.74600e-01,  4.97800e-02,  8.21700e-02, -1.47500e-02, -1.29100e-02],
                           [-4.30200e+00, -1.54900e+00,  4.02200e-01,  4.02300e-01, -8.70500e-02, -7.22200e-02,  2.89400e-02,  9.39100e-03],
                           [-5.02400e+00, -1.33000e-01, -2.40900e-02,  3.01700e-02,  2.85300e-02, -7.52800e-03, -1.00900e-02,  3.57000e-03],
                           [-2.10700e+00,  1.75800e-02, -2.29500e-02,  1.17300e-03,  6.09500e-03,  5.62400e-04,  5.05200e-05, -8.14100e-04],
                           [-8.68500e-01, -4.47800e-02, -1.54200e-02, -9.14000e-03,  3.20200e-03,  3.28700e-03, -1.00200e-03, -1.15000e-04],
                           [-3.72200e-01,  8.88400e-03,  1.93400e-02,  5.90900e-03, -1.74800e-03, -5.24600e-04, -8.72100e-04, -2.49600e-04],
                           [-1.85500e-01,  1.29800e-02,  2.16200e-02,  8.74300e-03, -1.07200e-03, -7.98800e-04, -3.45700e-04,  1.24400e-04],
                           [-6.56700e-02,  1.29800e-02, -2.19000e-03,  6.73800e-03,  2.42600e-03, -1.38700e-03,  7.98600e-04,  2.25000e-04],
                           [-3.92000e-02,  1.34600e-02,  8.82300e-03, -6.32900e-03,  2.80600e-03,  2.60500e-03, -1.41900e-03, -7.50500e-04],
                           [ 1.39000e-03, -1.76500e-04, -8.65100e-03,  2.82400e-03,  6.35400e-04, -1.94000e-03,  5.94900e-04,  7.53000e-04]])

# Reaction 9
chebyshev_reaction('O2 + aR (+ M) <=> aQOOH[O] (+ M)',
                   Tmin=180.0, Tmax=1500.0,
                   Pmin=(0.01, 'atm'), Pmax=(98.692, 'atm'),
                   coeffs=[[ 1.10900e+00,  3.72500e+00,  9.19800e-01,  2.75600e-01, -1.81000e-02, -9.56900e-02, -8.17100e-02, -1.96700e-02],
                           [-9.97600e-01, -1.99700e+00, -9.81000e-01, -2.06100e-01,  9.86800e-02,  1.49800e-01,  1.11900e-01,  1.64200e-02],
                           [-1.54700e+00,  1.74500e-01, -2.25000e-02, -1.16800e-01, -8.12900e-02, -3.62400e-02, -1.90700e-02,  1.19200e-02],
                           [-8.05100e-01,  9.64000e-02,  8.62000e-02,  3.78400e-02, -2.17500e-02, -3.42700e-02, -1.17200e-02, -3.02500e-03],
                           [-3.56000e-01,  2.97900e-02,  8.15500e-03,  1.67800e-02,  2.83200e-02,  1.46400e-02, -6.86400e-03, -1.13600e-02],
                           [-1.90400e-01, -1.66800e-03,  1.43900e-02,  6.17100e-03, -5.98700e-04,  4.65600e-03,  8.40400e-03,  4.09200e-03],
                           [-9.56600e-02,  6.16200e-03, -5.78300e-03, -4.86800e-03, -1.09600e-03, -3.89000e-06,  1.50900e-03,  3.34400e-03],
                           [-3.41400e-02, -1.59800e-02, -7.20700e-03,  1.98700e-03,  2.50800e-03, -7.16300e-04, -2.04700e-03, -1.48300e-03],
                           [-1.63600e-02,  8.06100e-03,  4.63500e-03, -4.26100e-03, -4.63800e-03, -7.16100e-04,  5.85500e-04,  4.74600e-04],
                           [ 1.08100e-03, -1.38700e-02, -1.67300e-03,  4.19900e-03,  2.26300e-03, -2.78600e-04, -7.55500e-04, -1.09100e-03]])
#  aQOOHb(+M) <=> aQOOHg(+M)                           1.000e+00 0.000     0.000
#      TCHEB/ 180.000   1500.000 /
#      PCHEB/ 0.010     98.692   /
#      CHEB/ 10 8/
#      CHEB/ -9.634e+00   1.866e+00    -1.202e-01   -5.262e-02   -1.463e-02  /
#      CHEB/ 1.653e-03    1.845e-03    -5.078e-05   -2.241e+00   2.187e+00   /
#      CHEB/ 4.540e-01    -3.302e-04   -1.618e-02   -5.615e-03   -1.586e-03  /
#      CHEB/ 3.588e-04    -3.637e+00   -3.628e-01   1.066e-01    8.039e-02   /
#      CHEB/ 3.773e-03    -1.669e-03   -3.424e-04   -4.845e-04   -1.943e+00  /
#      CHEB/ -7.061e-01   -2.051e-01   4.797e-02    2.266e-02    -1.821e-03  /
#      CHEB/ -1.139e-03   1.568e-04    -7.394e-01   -2.437e-01   -2.088e-01  /
#      CHEB/ -2.998e-02   1.546e-02    4.946e-03    -9.361e-04   -3.790e-04  /
#      CHEB/ -1.928e-01   8.033e-02    -5.741e-02   -4.386e-02   -8.818e-03  /
#      CHEB/ 4.174e-03    1.620e-03    -1.921e-04   -3.259e-02   1.183e-01   /
#      CHEB/ 3.984e-02    -6.546e-03   -1.454e-02   -2.707e-03   1.625e-03   /
#      CHEB/ 5.110e-04    -1.339e-02   3.992e-02    3.757e-02    1.919e-02   /
#      CHEB/ -2.047e-03   -4.401e-03   -6.167e-04   5.333e-04    -1.413e-02  /
#      CHEB/ -2.391e-02   -8.925e-04   1.273e-02    7.754e-03    -1.347e-04  /
#      CHEB/ -1.471e-03   -2.042e-04   -1.949e-02   -2.588e-02   -1.792e-02  /
#      CHEB/ -2.556e-03   4.229e-03    2.840e-03    -5.961e-05   -5.402e-04  /
#  aQOOH[O](+M) <=> aQOOHg(+M)                         1.000e+00 0.000     0.000
#      TCHEB/ 180.000   1500.000 /
#      PCHEB/ 0.010     98.692   /
#      CHEB/ 10 8/
#      CHEB/ -3.723e+00   2.548e+00    -2.522e-01   3.810e-02    -2.032e-02  /
#      CHEB/ 4.431e-03    1.811e-03    -6.142e-04   -6.122e+00   1.012e+00   /
#      CHEB/ 1.253e-01    3.051e-03    3.616e-02    -8.818e-03   -3.262e-03  /
#      CHEB/ 1.162e-03    -3.874e+00   -3.149e-01   -1.069e-02   -7.176e-03  /
#      CHEB/ -9.791e-05   6.949e-03    9.334e-04    -1.029e-03   -1.816e+00  /
#      CHEB/ -2.824e-01   -9.471e-02   -9.905e-03   -1.754e-03   -7.739e-04  /
#      CHEB/ 1.602e-03    4.517e-04    -7.038e-01   -3.074e-02   -6.902e-02  /
#      CHEB/ -2.153e-02   3.691e-04    -1.216e-03   -9.106e-04   5.566e-04   /