units(length='cm', time='s', quantity='mol', act_energy='kcal/mol')

ideal_gas(name='gas',
          elements="H D T C Ci O Oi N Ne Ar He Si S F Cl Br I X",
          species="""propene3ol       OH               disub_c4ether
                     H2O              disub_epoxy      gQOOHa
                     propene1ol       gQOOHb           ipropylOOH
                     galdoxy          galkene          CH2O
                     O2               gRO2             gQOOHg
                     gR               galdol           monosub_c4ether
                     HO2              gQOOH[O]""",
          reactions='all',
          initial_state=state(temperature=300.0, pressure=OneAtm))

#-------------------------------------------------------------------------------
# Element data
#-------------------------------------------------------------------------------

element(symbol='Ci', atomic_mass=13.003)
element(symbol='D', atomic_mass=2.014)
element(symbol='Oi', atomic_mass=18.0)
element(symbol='T', atomic_mass=3.016)
element(symbol='X', atomic_mass=195.083)
#-------------------------------------------------------------------------------
# Species data
#-------------------------------------------------------------------------------

species(name='propene3ol',
        atoms='C:3 H:6 O:1',
        thermo=(NASA([10.00, 444.81],
                     [ 3.92769709E+00,  4.89977303E-03,  1.13094874E-04,
                      -2.59008187E-07,  1.86205760E-10, -1.64008192E+04,
                       9.90805416E+00]),
                NASA([444.81, 3000.00],
                     [ 2.61720343E+00,  3.01777872E-02, -1.76511625E-05,
                       5.14864061E-09, -5.91153761E-13, -1.64177197E+04,
                       1.36683107E+01])))

species(name='OH',
        atoms='H:1 O:1',
        thermo=(NASA([10.00, 984.14],
                     [ 3.49686242E+00,  1.83973160E-04, -9.97634499E-07,
                       1.56942783E-09, -6.10128175E-13,  3.41673934E+03,
                       1.48093120E+00]),
                NASA([984.14, 3000.00],
                     [ 3.45221464E+00, -2.95124034E-04,  7.39418622E-07,
                      -2.89309866E-10,  3.53041498E-14,  3.45751599E+03,
                       1.85813897E+00])))

species(name='disub_c4ether',
        atoms='C:4 H:8 O:2',
        thermo=(NASA([10.00, 413.50],
                     [ 3.78241323E+00,  1.89501763E-02,  8.65302396E-05,
                      -1.80580575E-07,  1.13656264E-10, -3.78412375E+04,
                       1.09982450E+01]),
                NASA([413.50, 3000.00],
                     [ 4.29420885E-01,  5.13851903E-02, -3.11292293E-05,
                       9.11498284E-09, -1.03192718E-12, -3.75639432E+04,
                       2.42134976E+01])))

species(name='H2O',
        atoms='H:2 O:1',
        thermo=(NASA([10.00, 773.84],
                     [ 4.00473541E+00, -2.39729134E-04,  8.11862955E-07,
                       1.47891862E-09, -1.19783539E-12, -3.03533807E+04,
                      -9.96254147E-02]),
                NASA([773.84, 3000.00],
                     [ 3.52133374E+00,  1.05377009E-03,  6.40722099E-07,
                      -3.86240235E-10,  5.49243294E-14, -3.02424794E+04,
                       2.34173094E+00])))

species(name='disub_epoxy',
        atoms='C:4 H:8 O:2',
        thermo=(NASA([10.00, 549.41],
                     [ 3.89863211E+00,  5.97532637E-03,  1.66685676E-04,
                      -3.10743768E-07,  1.78330192E-10, -3.61447880E+04,
                       1.13847308E+01]),
                NASA([549.41, 3000.00],
                     [-6.40277648E-01,  6.05960003E-02, -4.13427220E-05,
                       1.31555461E-08, -1.57685017E-12, -3.59716711E+04,
                       2.76005436E+01])))

species(name='gQOOHa',
        atoms='C:4 H:9 O:3',
        thermo=(NASA([10.00, 160.74],
                     [ 3.80808147E+00,  2.31043884E-02,  5.26945984E-04,
                      -3.11500696E-06,  6.03881958E-09, -2.54294294E+04,
                       1.17645316E+01]),
                NASA([160.74, 3000.00],
                     [ 2.90630300E+00,  6.50241173E-02, -4.60073244E-05,
                       1.51330930E-08, -1.87074267E-12, -2.54256048E+04,
                       1.36838819E+01])))

species(name='propene1ol',
        atoms='C:3 H:6 O:1',
        thermo=(NASA([10.00, 459.42],
                     [ 3.91245344E+00,  5.85800161E-03,  1.15412006E-04,
                      -2.68014417E-07,  1.91800131E-10, -2.06429273E+04,
                       8.14807684E+00]),
                NASA([459.42, 3000.00],
                     [ 3.14049093E+00,  2.95550898E-02, -1.73843684E-05,
                       5.11506211E-09, -5.92966137E-13, -2.07511498E+04,
                       9.32215170E+00])))

species(name='gQOOHb',
        atoms='C:4 H:9 O:3',
        thermo=(NASA([10.00, 1018.67],
                     [ 3.99028351E+00,  4.29665712E-02,  2.28338778E-05,
                      -5.67914439E-08,  2.29383258E-11, -2.44833051E+04,
                       1.20326731E+01]),
                NASA([1018.67, 3000.00],
                     [ 1.38304153E+01,  3.88527019E-02, -2.19473905E-05,
                       5.78719895E-09, -5.85097740E-13, -2.82793898E+04,
                      -4.44147388E+01])))

species(name='ipropylOOH',
        atoms='C:3 H:7 O:2',
        thermo=(NASA([10.00, 405.01],
                     [ 3.30075623E+00,  7.58672756E-02, -3.35754269E-04,
                       8.05972164E-07, -6.68864582E-10, -7.95264656E+02,
                       1.43372849E+01]),
                NASA([405.01, 3000.00],
                     [ 2.51742509E+00,  3.72760950E-02, -2.12450220E-05,
                       5.83593926E-09, -6.22110649E-13, -3.51857049E+02,
                       2.20991392E+01])))

species(name='galdoxy',
        atoms='C:4 H:7 O:2',
        thermo=(NASA([10.00, 209.62],
                     [ 3.82641108E+00,  1.84758886E-02,  3.43073800E-04,
                      -1.82817005E-06,  2.98516720E-09, -1.74594714E+04,
                       1.17972706E+01]),
                NASA([209.62, 3000.00],
                     [ 4.22049016E+00,  4.03370149E-02, -2.36129482E-05,
                       6.72979114E-09, -7.47862493E-13, -1.75405412E+04,
                       8.97211724E+00])))

species(name='galkene',
        atoms='C:4 H:8 O:1',
        thermo=(NASA([10.00, 383.47],
                     [ 3.84035604E+00,  1.20378740E-02,  1.87486319E-04,
                      -5.44759148E-07,  4.80711015E-10, -2.10767610E+04,
                       1.02570291E+01]),
                NASA([383.47, 3000.00],
                     [ 4.00413385E+00,  3.79025144E-02, -2.15435710E-05,
                       6.15213311E-09, -6.97446345E-13, -2.12920503E+04,
                       6.98052628E+00])))

species(name='CH2O',
        atoms='C:1 H:2 O:1',
        thermo=(NASA([10.00, 601.31],
                     [ 4.03190845E+00, -1.93233367E-03,  8.89743345E-06,
                       2.98105926E-09, -7.90813886E-12, -1.42276270E+04,
                       3.47574660E+00]),
                NASA([601.31, 3000.00],
                     [ 1.40134195E+00,  9.48858016E-03, -4.43088317E-06,
                       9.48452194E-10, -7.43790219E-14, -1.38013869E+04,
                       1.57423780E+01])))

species(name='O2',
        atoms='O:2',
        thermo=(NASA([10.00, 605.96],
                     [ 3.50743498E+00, -4.43860349E-04,  1.45938058E-06,
                       1.61509333E-09, -2.32050052E-12, -9.24756224E+02,
                       4.72183634E+00]),
                NASA([605.96, 3000.00],
                     [ 2.87462882E+00,  2.17840991E-03, -1.18262921E-06,
                       2.86910493E-10, -2.53297146E-14, -8.19517838E+02,
                       7.69331810E+00])))

species(name='gRO2',
        atoms='C:4 H:9 O:3',
        thermo=(NASA([10.00, 177.33],
                     [ 3.70632176E+00,  3.49733664E-02,  4.64036392E-04,
                      -3.18637835E-06,  6.38178607E-09, -2.81748565E+04,
                       1.24459269E+01]),
                NASA([177.33, 3000.00],
                     [ 4.82062697E+00,  5.17179689E-02, -3.18386818E-05,
                       9.52247045E-09, -1.10180288E-12, -2.82802271E+04,
                       7.14082953E+00])))

species(name='gQOOHg',
        atoms='C:4 H:9 O:3',
        thermo=(NASA([10.00, 475.03],
                     [ 3.42273720E+00,  4.98344215E-02,  6.47820920E-05,
                      -2.49842966E-07,  1.98636537E-10, -2.06333404E+04,
                       1.41578583E+01]),
                NASA([475.03, 3000.00],
                     [ 5.94049074E+00,  5.53778585E-02, -3.71708255E-05,
                       1.17540477E-08, -1.40812095E-12, -2.11742947E+04,
                       7.09201218E-01])))

species(name='gR',
        atoms='C:4 H:9 O:1',
        thermo=(NASA([10.00, 638.24],
                     [ 3.37074633E+00,  5.17529751E-02, -6.54872940E-05,
                       6.88084237E-08, -3.21569794E-11, -1.00950693E+04,
                       1.14339669E+01]),
                NASA([638.24, 3000.00],
                     [ 3.99410860E+00,  4.06314915E-02, -2.23932510E-05,
                       6.08356263E-09, -6.49884708E-13, -1.00276946E+04,
                       9.85769960E+00])))

species(name='galdol',
        atoms='C:4 H:8 O:2',
        thermo=(NASA([10.00, 506.68],
                     [ 3.85380874E+00,  9.21272695E-03,  1.86712348E-04,
                      -3.96417049E-07,  2.55528268E-10, -4.76073955E+04,
                       1.24312743E+01]),
                NASA([506.68, 3000.00],
                     [ 1.49710213E+00,  5.65979142E-02, -3.87709084E-05,
                       1.23682052E-08, -1.48287964E-12, -4.77380049E+04,
                       1.85531759E+01])))

species(name='monosub_c4ether',
        atoms='C:4 H:8 O:2',
        thermo=(NASA([10.00, 380.36],
                     [ 3.47743996E+00,  6.08051311E-02, -2.78518945E-04,
                       8.23182713E-07, -7.87158031E-10, -3.17774465E+04,
                       1.06415154E+01]),
                NASA([380.36, 3000.00],
                     [-1.09346901E+00,  5.35985968E-02, -3.21081420E-05,
                       9.20818293E-09, -1.01830294E-12, -3.10298865E+04,
                       3.35312368E+01])))

species(name='HO2',
        atoms='H:1 O:2',
        thermo=(NASA([10.00, 891.11],
                     [ 4.02887004E+00, -1.75769289E-03,  1.08726004E-05,
                      -1.13812972E-08,  3.90113097E-12,  4.95165001E+02,
                       4.69302008E+00]),
                NASA([891.11, 3000.00],
                     [ 3.06571044E+00,  4.28505005E-03, -2.19325920E-06,
                       5.58882699E-10, -5.61246669E-14,  5.98557610E+02,
                       8.84564156E+00])))

species(name='gQOOH[O]',
        atoms='C:4 H:9 O:3',
        thermo=(NASA([10.00, 535.23],
                     [ 3.83107445E+00,  1.02302002E-02,  2.29377261E-04,
                      -4.59095575E-07,  2.77765018E-10, -1.93723156E+04,
                       1.41034859E+01]),
                NASA([535.23, 3000.00],
                     [-4.19283096E-01,  7.69784620E-02, -5.57279000E-05,
                       1.81378295E-08, -2.18295635E-12, -1.94184290E+04,
                       2.72711816E+01])))

#-------------------------------------------------------------------------------
# Reaction data
#-------------------------------------------------------------------------------

# Reaction 1
chebyshev_reaction('gQOOH[O] (+ M) <=> gRO2 (+ M)',
                   Tmin=180.0, Tmax=1500.0,
                   Pmin=(0.01, 'atm'), Pmax=(98.692, 'atm'),
                   coeffs=[[ 5.24800e+00,  1.25100e+00, -1.39600e-01,  1.00800e-02,  2.53600e-03, -2.46100e-04, -2.75500e-04, -1.72000e-05],
                           [-4.60100e+00,  1.23500e+00,  5.32300e-02, -2.61500e-02,  1.35800e-03,  2.09500e-03, -6.10300e-04, -2.27700e-04],
                           [-3.62200e+00,  1.05000e-01,  8.54700e-02,  2.23200e-02, -5.89200e-03, -1.30900e-03,  2.03600e-04,  4.04400e-05],
                           [-1.95700e+00, -6.23900e-02, -2.22200e-02,  2.01200e-02,  5.51700e-03, -2.35400e-03, -9.26000e-04,  2.25200e-04],
                           [-9.62400e-01,  9.97600e-02, -1.98700e-03, -9.63500e-03,  1.75500e-03,  1.01900e-03, -4.04400e-04, -2.01200e-04],
                           [-5.28700e-01,  1.22900e-01,  6.69000e-02, -3.33300e-03, -7.04500e-03, -2.33900e-04,  8.10100e-04, -1.56900e-05],
                           [-3.24500e-01,  1.77700e-02,  6.51400e-02,  1.76900e-02, -2.36400e-03, -2.45600e-03, -5.95900e-06,  2.37600e-04],
                           [-1.89300e-01, -7.83700e-02,  1.88000e-02,  1.67700e-02,  5.35800e-03, -1.30400e-04, -8.83000e-04, -2.22300e-04],
                           [-9.09400e-02, -9.47400e-02, -1.35400e-02,  3.58600e-03,  4.25900e-03,  2.34500e-03, -5.44400e-05, -5.06300e-04],
                           [-3.58100e-02, -6.35400e-02, -1.89400e-02, -6.41900e-04,  4.10700e-04,  9.96100e-04,  5.12800e-04, -6.46100e-05]])

# Reaction 2
chebyshev_reaction('gQOOHa (+ M) <=> gRO2 (+ M)',
                   Tmin=180.0, Tmax=1500.0,
                   Pmin=(0.01, 'atm'), Pmax=(98.692, 'atm'),
                   coeffs=[[ 1.14900e+00,  1.10900e+00, -8.71700e-02,  1.34200e-02, -2.72600e-03,  1.44800e-04, -3.91100e-04,  1.12600e-04],
                           [ 4.17600e-01,  1.49900e+00,  3.91300e-02, -2.26000e-02,  4.78900e-03, -1.96000e-03, -3.37600e-04,  2.11000e-04],
                           [-2.91300e+00,  5.10400e-01,  1.52100e-01,  2.83400e-03, -8.05200e-03, -4.53200e-04,  1.44400e-04,  8.14600e-06],
                           [-1.84100e+00, -4.60800e-02,  9.77800e-02,  3.32700e-02, -7.06600e-03, -2.42600e-03,  3.44600e-04,  1.15200e-04],
                           [-9.97300e-01, -1.48800e-01,  1.26300e-02,  2.47200e-02,  3.36200e-03, -2.26300e-03, -5.05700e-04,  1.77400e-04],
                           [-4.94100e-01, -5.80900e-02, -2.04100e-02,  3.94700e-03,  5.51400e-03,  3.41300e-04, -6.08800e-04, -1.18100e-04],
                           [-2.41900e-01,  9.39800e-03, -3.03400e-03, -3.54700e-03,  7.20900e-04,  1.29700e-03,  1.21000e-04, -2.56300e-04],
                           [-1.11100e-01, -1.96000e-03,  2.24200e-02,  2.42900e-03, -1.60900e-03,  4.70900e-06,  3.29000e-04, -9.36100e-05],
                           [-8.82700e-02, -3.87500e-02,  1.87700e-02,  1.28600e-02,  5.26500e-04, -1.02800e-03, -2.71500e-04, -8.30700e-06],
                           [-4.80200e-02, -6.82600e-02, -2.02100e-03,  1.40800e-02,  4.75200e-03, -6.14200e-04, -8.68600e-04, -1.27300e-04]])

# Reaction 3
chebyshev_reaction('gQOOHg (+ M) <=> gRO2 (+ M)',
                   Tmin=180.0, Tmax=1500.0,
                   Pmin=(0.01, 'atm'), Pmax=(98.692, 'atm'),
                   coeffs=[[ 4.60200e+00,  1.13300e+00, -9.43300e-02,  1.02600e-02, -3.14100e-04, -7.83100e-04,  1.03100e-04,  9.29800e-05],
                           [-3.41900e+00,  1.33200e+00,  5.49800e-02, -1.90700e-02, -4.30600e-04,  1.09400e-04, -1.54600e-04,  1.87200e-04],
                           [-3.21900e+00,  2.56500e-01,  1.26100e-01,  1.35600e-02, -9.21300e-03, -9.14400e-04,  6.81500e-04,  1.19600e-04],
                           [-1.88600e+00, -9.31000e-02,  1.68700e-02,  2.64300e-02,  6.36700e-04, -2.88100e-03, -6.32400e-05,  3.24400e-04],
                           [-9.04400e-01, -3.72600e-02, -2.88100e-02,  1.91500e-03,  4.83300e-03,  1.81800e-04, -6.18000e-04, -4.86300e-05],
                           [-4.30200e-01,  3.00900e-02,  1.14700e-02, -7.53200e-03, -2.50200e-03,  1.31400e-03,  4.56500e-04, -2.31700e-04],
                           [-2.51000e-01,  1.29300e-02,  4.21300e-02,  7.78100e-03, -4.94800e-03, -1.24200e-03,  6.74500e-04,  1.25800e-04],
                           [-1.76100e-01, -4.81200e-02,  2.94000e-02,  1.97400e-02,  1.37900e-03, -2.13800e-03, -5.07100e-04,  1.50500e-04],
                           [-1.06600e-01, -9.11000e-02, -2.38800e-03,  1.58300e-02,  6.52100e-03, -4.06200e-05, -1.03600e-03, -2.82800e-04],
                           [-4.59900e-02, -8.59700e-02, -2.38900e-02,  5.08400e-03,  5.51100e-03,  1.51800e-03, -3.42200e-04, -3.97900e-04]])

# Reaction 4
chebyshev_reaction('gQOOHb (+ M) <=> gRO2 (+ M)',
                   Tmin=180.0, Tmax=1500.0,
                   Pmin=(0.01, 'atm'), Pmax=(98.692, 'atm'),
                   coeffs=[[-2.24300e+00,  1.38200e+00,  3.93800e-02, -2.51300e-02, -6.21000e-03,  8.83700e-04,  3.98700e-04, -9.04000e-06],
                           [ 2.18100e+00,  1.85000e+00,  1.21400e-01, -2.82600e-02, -6.99100e-03,  4.78400e-04,  1.44500e-04, -3.54200e-05],
                           [-2.03400e+00,  4.73800e-01,  6.88500e-02,  2.49200e-02,  2.46400e-03, -1.74700e-03, -9.03500e-04,  8.25400e-06],
                           [-1.44000e+00, -1.63400e-01,  4.25000e-03,  3.54300e-02,  5.54700e-03, -2.04900e-03, -8.22500e-04,  1.18500e-04],
                           [-8.64200e-01, -1.74200e-01,  5.66500e-03,  1.82500e-02, -7.60200e-04, -1.36800e-03,  1.27100e-04,  2.01200e-04],
                           [-4.53700e-01, -8.33100e-02,  3.21400e-02,  7.95400e-03, -4.64900e-03, -8.29500e-04,  4.78100e-04,  6.42700e-05],
                           [-2.62000e-01, -6.53200e-02,  3.38900e-02,  8.33500e-03, -2.04800e-03, -1.14500e-04,  8.22300e-05, -2.06900e-04],
                           [-1.48000e-01, -7.34800e-02,  1.75400e-02,  9.81200e-03,  1.99200e-03,  4.43000e-04, -3.34600e-04, -3.21300e-04],
                           [-9.00900e-02, -6.90800e-02, -1.19100e-03,  9.36000e-03,  4.12200e-03,  4.93300e-04, -4.82100e-04, -2.40300e-04],
                           [-2.89700e-02, -6.11800e-02, -1.39100e-02,  6.55300e-03,  4.73500e-03,  3.73200e-04, -4.62300e-04, -1.31400e-04]])

# Reaction 5
chebyshev_reaction('O2 + gR (+ M) <=> gRO2 (+ M)',
                   Tmin=180.0, Tmax=1500.0,
                   Pmin=(0.01, 'atm'), Pmax=(98.692, 'atm'),
                   coeffs=[[ 1.01000e+01,  4.95900e-01, -9.25000e-02,  1.76500e-02, -3.97900e-03,  5.78300e-04, -1.71900e-04,  8.18600e-05],
                           [-1.73800e+00,  8.77000e-01, -1.31600e-01,  1.46500e-02, -9.13900e-04, -9.46800e-04,  2.48700e-04,  2.20000e-05],
                           [-1.14900e+00,  6.55500e-01, -4.96900e-02, -7.56700e-03,  3.56300e-03, -1.37000e-03,  2.34800e-04,  5.82300e-05],
                           [-8.23200e-01,  4.10900e-01,  2.08100e-02, -1.87600e-02,  3.39600e-03, -4.43900e-04,  6.68300e-06,  8.36800e-05],
                           [-5.83600e-01,  2.04300e-01,  5.83200e-02, -1.64300e-02,  2.15400e-04,  6.82400e-04, -5.91600e-05,  1.64100e-05],
                           [-3.96100e-01,  5.77600e-02,  6.45600e-02, -6.88000e-03, -2.60500e-03,  1.04600e-03,  1.10800e-04, -9.22700e-05],
                           [-2.53000e-01, -3.06100e-02,  5.08900e-02,  3.01200e-03, -3.29100e-03,  6.61100e-04,  2.91700e-04, -1.50600e-04],
                           [-1.48200e-01, -7.27900e-02,  2.91300e-02,  9.33500e-03, -1.97600e-03,  4.37000e-05,  2.86000e-04, -1.34000e-04],
                           [-7.56400e-02, -8.24600e-02,  7.59600e-03,  1.12900e-02,  2.42300e-04, -3.65800e-04,  8.26900e-05, -8.09300e-05],
                           [-2.89800e-02, -7.18400e-02, -9.07700e-03,  9.78000e-03,  2.28500e-03, -4.47200e-04, -1.92100e-04, -3.50400e-05]])
#  gRO2(+M) <=> gQOOH[O](+M)                           1.000e+00 0.000     0.000
#      TCHEB/ 180.000   1500.000 /
#      PCHEB/ 0.010     98.692   /
#      CHEB/ 10 8/
#      CHEB/ -7.131e+00   1.251e+00    -1.396e-01   1.008e-02    2.536e-03   /
#      CHEB/ -2.461e-04   -2.755e-04   -1.720e-05   4.479e+00    1.235e+00   /
#      CHEB/ 5.323e-02    -2.615e-02   1.358e-03    2.095e-03    -6.103e-04  /
#      CHEB/ -2.277e-04   -3.449e+00   1.050e-01    8.547e-02    2.232e-02   /
#      CHEB/ -5.892e-03   -1.309e-03   2.036e-04    4.044e-05    -1.832e+00  /
#      CHEB/ -6.239e-02   -2.222e-02   2.012e-02    5.517e-03    -2.354e-03  /
#      CHEB/ -9.260e-04   2.252e-04    -9.088e-01   9.976e-02    -1.987e-03  /
#      CHEB/ -9.635e-03   1.755e-03    1.019e-03    -4.044e-04   -2.012e-04  /
#      CHEB/ -5.096e-01   1.229e-01    6.690e-02    -3.333e-03   -7.045e-03  /
#      CHEB/ -2.339e-04   8.101e-04    -1.569e-05   -3.182e-01   1.777e-02   /
#      CHEB/ 6.514e-02    1.769e-02    -2.364e-03   -2.456e-03   -5.959e-06  /
#      CHEB/ 2.376e-04    -1.874e-01   -7.837e-02   1.880e-02    1.677e-02   /
#      CHEB/ 5.358e-03    -1.304e-04   -8.830e-04   -2.223e-04   -9.047e-02  /
#      CHEB/ -9.474e-02   -1.354e-02   3.586e-03    4.259e-03    2.345e-03   /
#      CHEB/ -5.444e-05   -5.063e-04   -3.584e-02   -6.354e-02   -1.894e-02  /
#      CHEB/ -6.419e-04   4.107e-04    9.961e-04    5.128e-04    -6.461e-05  /

# Reaction 6
chebyshev_reaction('gQOOHa (+ M) <=> gQOOH[O] (+ M)',
                   Tmin=180.0, Tmax=1500.0,
                   Pmin=(0.01, 'atm'), Pmax=(98.692, 'atm'),
                   coeffs=[[-9.37700e+00,  8.80500e-01, -4.03500e-01,  1.54300e-02,  1.41200e-02, -2.32600e-03, -6.66000e-04,  2.66100e-04],
                           [ 1.37200e+00,  2.20200e+00,  2.58800e-01, -8.75500e-02, -9.58600e-03,  8.57300e-03, -4.74900e-05, -8.63500e-04],
                           [-4.25500e+00, -1.78700e-02,  2.47700e-01,  6.20600e-02, -2.03100e-02, -5.52100e-03,  1.27800e-03,  5.21800e-04],
                           [-2.26000e+00, -3.34300e-01, -3.06900e-02,  5.87100e-02,  1.25100e-02, -5.85900e-03, -2.34700e-03,  4.47400e-04],
                           [-9.74200e-01, -4.05100e-02, -6.92600e-02, -7.49000e-03,  9.68300e-03,  2.65200e-03, -8.67700e-04, -6.10900e-04],
                           [-4.04100e-01,  1.33700e-01,  1.94300e-02, -2.00700e-02, -6.84800e-03,  1.98500e-03,  1.61400e-03, -1.13000e-04],
                           [-2.01700e-01,  1.05300e-01,  6.01200e-02,  3.44100e-03, -6.80400e-03, -2.14500e-03,  7.32500e-04,  4.66700e-04],
                           [-1.27000e-01, -3.97300e-04,  4.32300e-02,  1.48900e-02,  1.30200e-03, -1.41500e-03, -7.71900e-04, -2.03200e-05],
                           [-9.10400e-02, -6.57900e-02,  1.21200e-02,  1.20100e-02,  3.63400e-03,  7.90900e-04, -5.00000e-04, -4.48600e-04],
                           [-6.44000e-02, -7.78400e-02, -9.87100e-03,  8.81000e-03,  3.04800e-03,  4.07000e-04, -9.18400e-05, -1.58300e-04]])

# Reaction 7
chebyshev_reaction('gQOOHg (+ M) <=> gQOOH[O] (+ M)',
                   Tmin=180.0, Tmax=1500.0,
                   Pmin=(0.01, 'atm'), Pmax=(98.692, 'atm'),
                   coeffs=[[-4.93900e+00,  9.56900e-01, -4.08400e-01,  2.41900e-03,  1.52100e-02,  6.11900e-04, -1.01800e-03, -1.76900e-04],
                           [-3.61100e+00,  1.97300e+00,  2.81800e-01, -7.34800e-02, -1.68100e-02,  7.28100e-03,  1.88100e-03, -6.75700e-04],
                           [-4.49100e+00, -2.49300e-01,  1.96300e-01,  7.64500e-02, -1.39500e-02, -8.82100e-03,  5.66800e-04,  1.33000e-03],
                           [-2.22100e+00, -3.85400e-01, -1.10000e-01,  4.96800e-02,  2.00900e-02, -4.83000e-03, -3.25500e-03,  3.19100e-04],
                           [-8.57600e-01,  3.85200e-02, -9.82000e-02, -3.11100e-02,  8.97300e-03,  5.74600e-03, -5.93200e-04, -9.94000e-04],
                           [-3.38300e-01,  2.16100e-01,  5.06200e-02, -3.17500e-02, -1.42500e-02,  2.73300e-03,  2.67400e-03, -1.45700e-04],
                           [-2.16400e-01,  1.24300e-01,  9.77900e-02,  1.44700e-02, -1.14900e-02, -4.52000e-03,  1.10800e-03,  8.20800e-04],
                           [-1.73500e-01, -3.98300e-02,  4.99500e-02,  3.03800e-02,  4.82700e-03, -3.37300e-03, -1.66100e-03,  1.92100e-04],
                           [-1.21300e-01, -1.14600e-01, -8.75200e-03,  1.51000e-02,  9.38700e-03,  1.78100e-03, -1.27500e-03, -7.09300e-04],
                           [-6.20800e-02, -9.74300e-02, -2.97700e-02, -2.16400e-04,  3.84900e-03,  2.48700e-03,  3.50000e-04, -4.22500e-04]])

# Reaction 8
chebyshev_reaction('gQOOHb (+ M) <=> gQOOH[O] (+ M)',
                   Tmin=180.0, Tmax=1500.0,
                   Pmin=(0.01, 'atm'), Pmax=(98.692, 'atm'),
                   coeffs=[[-1.21900e+01,  1.46700e+00, -1.50400e-01, -7.09500e-02, -4.68400e-03,  5.64700e-03,  9.64200e-04, -4.08100e-04],
                           [ 2.35500e+00,  2.33800e+00,  2.55300e-01, -2.05700e-02, -1.17000e-02,  7.94800e-05,  1.37800e-04, -1.79300e-04],
                           [-3.33800e+00, -2.20400e-01,  5.36400e-02,  7.94800e-02,  9.74000e-03, -4.28100e-03, -2.20700e-03,  8.39700e-05],
                           [-1.76200e+00, -3.64900e-01, -1.00200e-01,  3.15400e-02,  1.25400e-02, -1.94700e-03, -1.30000e-03,  3.33600e-04],
                           [-7.76200e-01, -6.96200e-03, -2.09900e-02, -1.77600e-02, -4.60000e-03,  1.21100e-03,  9.12600e-04, -8.83700e-06],
                           [-3.95000e-01,  1.04800e-01,  8.52100e-02, -7.90000e-03, -1.36200e-02, -7.66700e-04,  1.50300e-03,  5.56600e-05],
                           [-2.55200e-01,  2.09300e-02,  8.93800e-02,  1.98400e-02, -4.34700e-03, -3.05200e-03, -2.04600e-04,  1.78200e-04],
                           [-1.65200e-01, -8.11500e-02,  3.51800e-02,  2.11900e-02,  6.45500e-03, -3.09000e-04, -1.28000e-03, -3.00600e-04],
                           [-9.66400e-02, -1.04500e-01, -8.58800e-03,  6.55400e-03,  6.14100e-03,  2.51600e-03, -2.22000e-04, -5.34300e-04],
                           [-4.90300e-02, -7.43200e-02, -2.23600e-02, -6.72600e-05,  1.67300e-03,  1.25300e-03,  5.55400e-04, -4.16000e-05]])

# Reaction 9
chebyshev_reaction('O2 + gR (+ M) <=> gQOOH[O] (+ M)',
                   Tmin=180.0, Tmax=1500.0,
                   Pmin=(0.01, 'atm'), Pmax=(98.692, 'atm'),
                   coeffs=[[ 2.37200e+00,  9.27700e-01, -3.68600e-01, -1.03900e-01,  1.70300e-02,  2.24800e-02, -1.64600e-03, -4.82800e-03],
                           [-3.84500e+00,  6.63100e-01,  1.96000e-01,  8.87600e-02, -3.48200e-02, -2.09600e-02,  5.21500e-03,  5.23300e-03],
                           [-2.35500e+00,  1.71800e-01, -6.05800e-02,  5.25500e-02,  1.83800e-02, -7.72400e-03, -3.60500e-03,  3.78500e-04],
                           [-1.10500e+00,  1.55300e-01, -1.19400e-01, -2.32100e-02,  2.34500e-02,  3.35300e-03, -2.20500e-03, -1.00400e-03],
                           [-4.65400e-01,  2.84200e-01,  3.99300e-03, -5.92800e-02, -1.71000e-03,  6.35700e-03,  1.38900e-03, -5.49900e-04],
                           [-2.47700e-01,  2.31100e-01,  1.16700e-01, -2.67400e-02, -1.65500e-02,  6.18900e-04,  1.96300e-03,  3.80300e-04],
                           [-1.90300e-01,  6.58600e-02,  1.13500e-01,  1.66400e-02, -9.45000e-03, -3.45000e-03,  1.60600e-04,  4.82400e-04],
                           [-1.43400e-01, -7.11700e-02,  5.08400e-02,  2.44500e-02,  2.12600e-03, -1.12900e-03, -8.85500e-04, -2.18400e-04],
                           [-9.45100e-02, -1.05400e-01, -1.53600e-03,  1.21200e-02,  3.89800e-03,  1.57300e-03, -4.63000e-05, -4.77400e-04],
                           [-5.51800e-02, -7.98100e-02, -1.73600e-02,  4.16200e-03,  8.78100e-04,  5.73500e-04,  6.31400e-04,  1.81500e-05]])
#  gRO2(+M) <=> gQOOHa(+M)                             1.000e+00 0.000     0.000
#      TCHEB/ 180.000   1500.000 /
#      PCHEB/ 0.010     98.692   /
#      CHEB/ 10 8/
#      CHEB/ -2.869e+00   1.109e+00    -8.717e-02   1.342e-02    -2.726e-03  /
#      CHEB/ 1.448e-04    -3.911e-04   1.126e-04    3.552e+00    1.499e+00   /
#      CHEB/ 3.913e-02    -2.260e-02   4.789e-03    -1.960e-03   -3.376e-04  /
#      CHEB/ 2.110e-04    -2.751e+00   5.104e-01    1.521e-01    2.834e-03   /
#      CHEB/ -8.052e-03   -4.532e-04   1.444e-04    8.146e-06    -1.767e+00  /
#      CHEB/ -4.608e-02   9.778e-02    3.327e-02    -7.066e-03   -2.426e-03  /
#      CHEB/ 3.446e-04    1.152e-04    -9.687e-01   -1.488e-01   1.263e-02   /
#      CHEB/ 2.472e-02    3.362e-03    -2.263e-03   -5.057e-04   1.774e-04   /
#      CHEB/ -4.844e-01   -5.809e-02   -2.041e-02   3.947e-03    5.514e-03   /
#      CHEB/ 3.413e-04    -6.088e-04   -1.181e-04   -2.390e-01   9.398e-03   /
#      CHEB/ -3.034e-03   -3.547e-03   7.209e-04    1.297e-03    1.210e-04   /
#      CHEB/ -2.563e-04   -1.104e-01   -1.960e-03   2.242e-02    2.429e-03   /
#      CHEB/ -1.609e-03   4.709e-06    3.290e-04    -9.361e-05   -8.828e-02  /
#      CHEB/ -3.875e-02   1.877e-02    1.286e-02    5.265e-04    -1.028e-03  /
#      CHEB/ -2.715e-04   -8.307e-06   -4.814e-02   -6.826e-02   -2.021e-03  /
#      CHEB/ 1.408e-02    4.752e-03    -6.142e-04   -8.686e-04   -1.273e-04  /
#  gQOOH[O](+M) <=> gQOOHa(+M)                         1.000e+00 0.000     0.000
#      TCHEB/ 180.000   1500.000 /
#      PCHEB/ 0.010     98.692   /
#      CHEB/ 10 8/
#      CHEB/ -1.016e+00   8.805e-01    -4.035e-01   1.543e-02    1.412e-02   /
#      CHEB/ -2.326e-03   -6.660e-04   2.661e-04    -4.574e+00   2.202e+00   /
#      CHEB/ 2.588e-01    -8.755e-02   -9.586e-03   8.573e-03    -4.749e-05  /
#      CHEB/ -8.635e-04   -4.267e+00   -1.787e-02   2.477e-01    6.206e-02   /
#      CHEB/ -2.031e-02   -5.521e-03   1.278e-03    5.218e-04    -2.311e+00  /
#      CHEB/ -3.343e-01   -3.069e-02   5.871e-02    1.251e-02    -5.859e-03  /
#      CHEB/ -2.347e-03   4.474e-04    -9.993e-01   -4.051e-02   -6.926e-02  /
#      CHEB/ -7.490e-03   9.683e-03    2.652e-03    -8.677e-04   -6.109e-04  /
#      CHEB/ -4.133e-01   1.337e-01    1.943e-02    -2.007e-02   -6.848e-03  /
#      CHEB/ 1.985e-03    1.614e-03    -1.130e-04   -2.050e-01   1.053e-01   /
#      CHEB/ 6.012e-02    3.441e-03    -6.804e-03   -2.145e-03   7.325e-04   /
#      CHEB/ 4.667e-04    -1.282e-01   -3.973e-04   4.323e-02    1.489e-02   /
#      CHEB/ 1.302e-03    -1.415e-03   -7.719e-04   -2.032e-05   -9.151e-02  /
#      CHEB/ -6.579e-02   1.212e-02    1.201e-02    3.634e-03    7.909e-04   /