units(length='cm', time='s', quantity='mol', act_energy='kcal/mol')

ideal_gas(name='gas',
          elements="H D T C Ci O Oi N Ne Ar He Si S F Cl Br I X",
          species="""propene3ol       OH               disub_c4ether
                     H2O              disub_epoxy      gQOOHa
                     propene1ol       gQOOHb           ipropylOOH
                     galdoxy          galkene          CH2O
                     O2               gRO2             gQOOHg
                     gR               galdol           monosub_c4ether
                     HO2              gQOOH[O]""",
          reactions='all',
          initial_state=state(temperature=300.0, pressure=OneAtm))

#-------------------------------------------------------------------------------
# Element data
#-------------------------------------------------------------------------------

element(symbol='Ci', atomic_mass=13.003)
element(symbol='D', atomic_mass=2.014)
element(symbol='Oi', atomic_mass=18.0)
element(symbol='T', atomic_mass=3.016)
element(symbol='X', atomic_mass=195.083)
#-------------------------------------------------------------------------------
# Species data
#-------------------------------------------------------------------------------

species(name='propene3ol',
        atoms='C:3 H:6 O:1',
        thermo=(NASA([10.00, 444.81],
                     [ 3.92769709E+00,  4.89977303E-03,  1.13094874E-04,
                      -2.59008187E-07,  1.86205760E-10, -1.88412452E+04,
                       9.90805416E+00]),
                NASA([444.81, 3000.00],
                     [ 2.61720343E+00,  3.01777872E-02, -1.76511625E-05,
                       5.14864061E-09, -5.91153761E-13, -1.88581457E+04,
                       1.36683107E+01])))

species(name='OH',
        atoms='H:1 O:1',
        thermo=(NASA([10.00, 984.14],
                     [ 3.49686242E+00,  1.83973160E-04, -9.97634499E-07,
                       1.56942783E-09, -6.10128175E-13,  3.41673934E+03,
                       1.48093120E+00]),
                NASA([984.14, 3000.00],
                     [ 3.45221464E+00, -2.95124034E-04,  7.39418622E-07,
                      -2.89309866E-10,  3.53041498E-14,  3.45751599E+03,
                       1.85813897E+00])))

species(name='disub_c4ether',
        atoms='C:4 H:8 O:2',
        thermo=(NASA([10.00, 413.50],
                     [ 3.78241323E+00,  1.89501763E-02,  8.65302396E-05,
                      -1.80580575E-07,  1.13656264E-10, -3.96758983E+04,
                       1.09982450E+01]),
                NASA([413.50, 3000.00],
                     [ 4.29420885E-01,  5.13851903E-02, -3.11292293E-05,
                       9.11498284E-09, -1.03192718E-12, -3.93986039E+04,
                       2.42134976E+01])))

species(name='H2O',
        atoms='H:2 O:1',
        thermo=(NASA([10.00, 773.84],
                     [ 4.00473541E+00, -2.39729134E-04,  8.11862955E-07,
                       1.47891862E-09, -1.19783539E-12, -3.03533807E+04,
                      -9.96254147E-02]),
                NASA([773.84, 3000.00],
                     [ 3.52133374E+00,  1.05377009E-03,  6.40722099E-07,
                      -3.86240235E-10,  5.49243294E-14, -3.02424794E+04,
                       2.34173094E+00])))

species(name='disub_epoxy',
        atoms='C:4 H:8 O:2',
        thermo=(NASA([10.00, 549.41],
                     [ 3.89863211E+00,  5.97532637E-03,  1.66685676E-04,
                      -3.10743768E-07,  1.78330192E-10, -3.54279169E+04,
                       1.13847308E+01]),
                NASA([549.41, 3000.00],
                     [-6.40277648E-01,  6.05960003E-02, -4.13427220E-05,
                       1.31555461E-08, -1.57685017E-12, -3.52548000E+04,
                       2.76005436E+01])))

species(name='gQOOHa',
        atoms='C:4 H:9 O:3',
        thermo=(NASA([10.00, 160.74],
                     [ 3.80808147E+00,  2.31043884E-02,  5.26945984E-04,
                      -3.11500696E-06,  6.03881958E-09, -2.31329407E+04,
                       1.17645316E+01]),
                NASA([160.74, 3000.00],
                     [ 2.90630300E+00,  6.50241173E-02, -4.60073244E-05,
                       1.51330930E-08, -1.87074267E-12, -2.31291162E+04,
                       1.36838819E+01])))

species(name='propene1ol',
        atoms='C:3 H:6 O:1',
        thermo=(NASA([10.00, 459.42],
                     [ 3.91245344E+00,  5.85800161E-03,  1.15412006E-04,
                      -2.68014417E-07,  1.91800131E-10, -2.04092435E+04,
                       8.14807684E+00]),
                NASA([459.42, 3000.00],
                     [ 3.14049093E+00,  2.95550898E-02, -1.73843684E-05,
                       5.11506211E-09, -5.92966137E-13, -2.05174660E+04,
                       9.32215170E+00])))

species(name='gQOOHb',
        atoms='C:4 H:9 O:3',
        thermo=(NASA([10.00, 1018.67],
                     [ 3.99028351E+00,  4.29665712E-02,  2.28338778E-05,
                      -5.67914439E-08,  2.29383258E-11, -2.35053511E+04,
                       1.20326731E+01]),
                NASA([1018.67, 3000.00],
                     [ 1.38304153E+01,  3.88527019E-02, -2.19473905E-05,
                       5.78719895E-09, -5.85097740E-13, -2.73014358E+04,
                      -4.44147388E+01])))

species(name='ipropylOOH',
        atoms='C:3 H:7 O:2',
        thermo=(NASA([10.00, 405.01],
                     [ 3.30075623E+00,  7.58672756E-02, -3.35754269E-04,
                       8.05972164E-07, -6.68864582E-10,  1.07812066E+03,
                       1.43372849E+01]),
                NASA([405.01, 3000.00],
                     [ 2.51742509E+00,  3.72760950E-02, -2.12450220E-05,
                       5.83593926E-09, -6.22110649E-13,  1.52152827E+03,
                       2.20991392E+01])))

species(name='galdoxy',
        atoms='C:4 H:7 O:2',
        thermo=(NASA([10.00, 209.62],
                     [ 3.82641108E+00,  1.84758886E-02,  3.43073800E-04,
                      -1.82817005E-06,  2.98516720E-09, -1.83218223E+04,
                       1.17972706E+01]),
                NASA([209.62, 3000.00],
                     [ 4.22049016E+00,  4.03370149E-02, -2.36129482E-05,
                       6.72979114E-09, -7.47862493E-13, -1.84028921E+04,
                       8.97211724E+00])))

species(name='galkene',
        atoms='C:4 H:8 O:1',
        thermo=(NASA([10.00, 383.47],
                     [ 3.84035604E+00,  1.20378740E-02,  1.87486319E-04,
                      -5.44759148E-07,  4.80711015E-10, -2.15422601E+04,
                       1.02570291E+01]),
                NASA([383.47, 3000.00],
                     [ 4.00413385E+00,  3.79025144E-02, -2.15435710E-05,
                       6.15213311E-09, -6.97446345E-13, -2.17575494E+04,
                       6.98052628E+00])))

species(name='CH2O',
        atoms='C:1 H:2 O:1',
        thermo=(NASA([10.00, 601.31],
                     [ 4.03190845E+00, -1.93233367E-03,  8.89743345E-06,
                       2.98105926E-09, -7.90813886E-12, -1.42276270E+04,
                       3.47574660E+00]),
                NASA([601.31, 3000.00],
                     [ 1.40134195E+00,  9.48858016E-03, -4.43088317E-06,
                       9.48452194E-10, -7.43790219E-14, -1.38013869E+04,
                       1.57423780E+01])))

species(name='O2',
        atoms='O:2',
        thermo=(NASA([10.00, 605.96],
                     [ 3.50743498E+00, -4.43860349E-04,  1.45938058E-06,
                       1.61509333E-09, -2.32050052E-12, -9.24756224E+02,
                       4.72183634E+00]),
                NASA([605.96, 3000.00],
                     [ 2.87462882E+00,  2.17840991E-03, -1.18262921E-06,
                       2.86910493E-10, -2.53297146E-14, -8.19517838E+02,
                       7.69331810E+00])))

species(name='gRO2',
        atoms='C:4 H:9 O:3',
        thermo=(NASA([10.00, 177.33],
                     [ 3.70632176E+00,  3.49733664E-02,  4.64036392E-04,
                      -3.18637835E-06,  6.38178607E-09, -2.91156912E+04,
                       1.24459269E+01]),
                NASA([177.33, 3000.00],
                     [ 4.82062697E+00,  5.17179689E-02, -3.18386818E-05,
                       9.52247045E-09, -1.10180288E-12, -2.92210617E+04,
                       7.14082953E+00])))

species(name='gQOOHg',
        atoms='C:4 H:9 O:3',
        thermo=(NASA([10.00, 475.03],
                     [ 3.42273720E+00,  4.98344215E-02,  6.47820920E-05,
                      -2.49842966E-07,  1.98636537E-10, -1.91948117E+04,
                       1.41578583E+01]),
                NASA([475.03, 3000.00],
                     [ 5.94049074E+00,  5.53778585E-02, -3.71708255E-05,
                       1.17540477E-08, -1.40812095E-12, -1.97357659E+04,
                       7.09201218E-01])))

species(name='gR',
        atoms='C:4 H:9 O:1',
        thermo=(NASA([10.00, 638.24],
                     [ 3.37074633E+00,  5.17529751E-02, -6.54872940E-05,
                       6.88084237E-08, -3.21569794E-11, -1.12875810E+04,
                       1.14339669E+01]),
                NASA([638.24, 3000.00],
                     [ 3.99410860E+00,  4.06314915E-02, -2.23932510E-05,
                       6.08356263E-09, -6.49884708E-13, -1.12202063E+04,
                       9.85769960E+00])))

species(name='galdol',
        atoms='C:4 H:8 O:2',
        thermo=(NASA([10.00, 506.68],
                     [ 3.85380874E+00,  9.21272695E-03,  1.86712348E-04,
                      -3.96417049E-07,  2.55528268E-10, -4.64722512E+04,
                       1.24312743E+01]),
                NASA([506.68, 3000.00],
                     [ 1.49710213E+00,  5.65979142E-02, -3.87709084E-05,
                       1.23682052E-08, -1.48287964E-12, -4.66028606E+04,
                       1.85531759E+01])))

species(name='monosub_c4ether',
        atoms='C:4 H:8 O:2',
        thermo=(NASA([10.00, 380.36],
                     [ 3.47743996E+00,  6.08051311E-02, -2.78518945E-04,
                       8.23182713E-07, -7.87158031E-10, -3.02207015E+04,
                       1.06415154E+01]),
                NASA([380.36, 3000.00],
                     [-1.09346901E+00,  5.35985968E-02, -3.21081420E-05,
                       9.20818293E-09, -1.01830294E-12, -2.94731415E+04,
                       3.35312368E+01])))

species(name='HO2',
        atoms='H:1 O:2',
        thermo=(NASA([10.00, 891.11],
                     [ 4.02887004E+00, -1.75769289E-03,  1.08726004E-05,
                      -1.13812972E-08,  3.90113097E-12,  4.95165001E+02,
                       4.69302008E+00]),
                NASA([891.11, 3000.00],
                     [ 3.06571044E+00,  4.28505005E-03, -2.19325920E-06,
                       5.58882699E-10, -5.61246669E-14,  5.98557610E+02,
                       8.84564156E+00])))

species(name='gQOOH[O]',
        atoms='C:4 H:9 O:3',
        thermo=(NASA([10.00, 535.23],
                     [ 3.83107445E+00,  1.02302002E-02,  2.29377261E-04,
                      -4.59095575E-07,  2.77765018E-10, -1.83402999E+04,
                       1.41034859E+01]),
                NASA([535.23, 3000.00],
                     [-4.19283096E-01,  7.69784620E-02, -5.57279000E-05,
                       1.81378295E-08, -2.18295635E-12, -1.83864132E+04,
                       2.72711816E+01])))

#-------------------------------------------------------------------------------
# Reaction data
#-------------------------------------------------------------------------------

# Reaction 1
chebyshev_reaction('gQOOH[O] (+ M) <=> gRO2 (+ M)',
                   Tmin=180.0, Tmax=1500.0,
                   Pmin=(0.01, 'atm'), Pmax=(98.692, 'atm'),
                   coeffs=[[ 5.06400e+00,  2.08000e+00,  2.40200e-03, -3.69600e-03, -2.05100e-03, -3.28700e-04,  1.40400e-04,  3.91300e-05],
                           [-5.91500e+00,  2.21600e-01,  4.93500e-02,  1.16100e-02,  1.14000e-03, -2.02300e-04, -2.27400e-05, -2.25800e-05],
                           [-2.87600e+00,  1.50000e-01,  2.42200e-02,  2.48700e-04, -2.04000e-03, -5.56200e-04,  8.46700e-05,  3.85800e-05],
                           [-1.44800e+00,  1.17000e-01,  3.21700e-02,  4.64500e-03, -2.82000e-04, -2.95700e-04, -1.01400e-04, -4.95000e-05],
                           [-8.38900e-01,  7.07800e-02,  3.38300e-02,  6.63600e-03,  4.95800e-04, -2.69500e-04, -2.61200e-04, -9.10200e-05],
                           [-4.34200e-01,  1.77400e-02,  2.78700e-02,  6.30800e-03,  5.23000e-04, -3.43200e-04, -3.37600e-04, -8.41400e-05],
                           [-2.67400e-01, -2.16600e-02,  2.32500e-02,  8.22700e-03,  1.37400e-03, -3.49500e-04, -4.72300e-04, -1.13800e-04],
                           [-1.90800e-01, -4.96500e-02,  1.57800e-02,  9.75500e-03,  2.26600e-03, -3.04700e-04, -5.42700e-04, -1.35200e-04],
                           [-5.88500e-02, -6.57900e-02,  4.59100e-03,  8.75500e-03,  2.11700e-03, -4.80200e-04, -5.01000e-04, -7.27700e-05],
                           [-5.56000e-02, -6.46200e-02, -3.09500e-03,  8.95500e-03,  2.77900e-03, -3.68100e-04, -4.45000e-04, -7.16500e-05]])

# Reaction 2
chebyshev_reaction('gQOOHa (+ M) <=> gRO2 (+ M)',
                   Tmin=180.0, Tmax=1500.0,
                   Pmin=(0.01, 'atm'), Pmax=(98.692, 'atm'),
                   coeffs=[[ 2.84000e+00,  7.77900e-01,  6.39200e-02, -3.62600e-04, -4.37000e-03,  3.58100e-05,  4.44300e-05,  8.24000e-05],
                           [-3.58800e+00,  1.10400e+00,  1.39600e-01, -2.40200e-03, -4.34900e-03, -1.01200e-03,  2.21800e-04,  9.74000e-05],
                           [-3.27800e+00,  3.27000e-01,  9.80700e-02,  7.40400e-03, -4.83500e-04, -1.20100e-03, -3.25900e-05,  6.53000e-05],
                           [-1.71600e+00, -4.36600e-02,  1.76800e-02,  1.10400e-02,  1.40200e-03, -6.37400e-04, -2.56900e-04,  1.68200e-05],
                           [-7.48900e-01, -3.13700e-03, -6.17300e-03,  3.30300e-03,  5.28400e-04, -3.41200e-04, -2.55100e-04, -1.49800e-05],
                           [-3.64700e-01,  7.16200e-02,  2.86900e-02,  3.64500e-03, -1.40400e-03, -9.06000e-04, -3.10400e-04, -3.72700e-06],
                           [-2.54600e-01,  1.75500e-02,  4.79100e-02,  1.44000e-02, -1.26800e-04, -1.53300e-03, -6.08000e-04, -2.19500e-05],
                           [-1.68800e-01, -7.02700e-02,  2.41200e-02,  1.89200e-02,  3.38600e-03, -1.17000e-03, -8.10400e-04, -9.05300e-05],
                           [-1.20000e-01, -9.42900e-02, -7.35900e-03,  1.27400e-02,  4.32200e-03, -3.76300e-04, -6.52700e-04, -9.61300e-05],
                           [-2.35400e-02, -6.92600e-02, -1.54500e-02,  6.03600e-03,  2.62500e-03, -4.18100e-04, -4.08500e-04, -1.24700e-05]])

# Reaction 3
chebyshev_reaction('gQOOHg (+ M) <=> gRO2 (+ M)',
                   Tmin=180.0, Tmax=1500.0,
                   Pmin=(0.01, 'atm'), Pmax=(98.692, 'atm'),
                   coeffs=[[ 4.67700e+00,  1.98600e+00, -2.29500e-02, -2.71100e-03, -1.03100e-03, -1.74200e-03, -5.67000e-04,  1.07800e-04],
                           [-5.61200e+00,  3.16700e-01,  8.77900e-02,  1.55800e-02,  1.63700e-03,  1.39300e-03,  5.11300e-04, -2.08500e-04],
                           [-2.97800e+00,  1.10400e-01,  1.45500e-02,  2.55200e-04, -1.00400e-03, -6.77100e-04, -2.95800e-04, -5.17500e-05],
                           [-1.44700e+00,  9.46100e-02,  3.06200e-02,  7.46000e-03,  6.71400e-04, -7.22600e-04, -4.74700e-04, -1.26500e-04],
                           [-7.22900e-01,  5.78900e-02,  3.26100e-02,  8.70200e-03,  1.48000e-03, -2.55800e-04, -4.12100e-04, -1.33300e-04],
                           [-4.34000e-01,  1.48100e-02,  2.85300e-02,  8.55100e-03,  1.57200e-03, -2.54800e-04, -5.27200e-04, -1.85200e-04],
                           [-2.79800e-01, -2.37300e-02,  2.13000e-02,  9.22800e-03,  2.35100e-03, -2.31100e-04, -6.95500e-04, -2.13700e-04],
                           [-1.49200e-01, -5.52300e-02,  1.32400e-02,  1.03900e-02,  2.57600e-03, -3.75400e-04, -6.29700e-04, -1.94300e-04],
                           [-7.00900e-02, -6.99500e-02,  8.02800e-04,  9.43400e-03,  3.49900e-03, -2.29100e-04, -7.41300e-04, -1.71600e-04],
                           [-8.13300e-02, -5.54200e-02, -2.79000e-04,  9.60600e-03,  2.91700e-03, -2.43800e-04, -4.12000e-04, -1.49000e-04]])

# Reaction 4
chebyshev_reaction('gQOOHb (+ M) <=> gRO2 (+ M)',
                   Tmin=180.0, Tmax=1500.0,
                   Pmin=(0.01, 'atm'), Pmax=(98.692, 'atm'),
                   coeffs=[[-1.52900e+00,  1.35200e+00,  2.60700e-02, -7.04900e-03, -7.09100e-03, -8.52200e-04,  4.68600e-04,  2.13100e-04],
                           [ 7.23700e-01,  1.73300e+00,  1.08900e-01, -1.78700e-03, -7.82500e-03, -1.72700e-03,  3.81300e-04,  2.12000e-04],
                           [-2.03200e+00,  3.35000e-01,  4.71900e-02,  3.66500e-02,  4.14900e-03, -1.43500e-03, -6.47100e-04, -1.28500e-04],
                           [-1.42700e+00, -2.14300e-01, -3.76100e-02,  2.94700e-02,  1.01900e-02,  4.37200e-04, -8.71000e-04, -2.96500e-04],
                           [-8.49200e-01, -1.19800e-01, -2.51100e-02,  2.46500e-04,  3.40000e-03,  1.16100e-03, -1.54800e-04, -1.33600e-04],
                           [-4.78500e-01,  4.97900e-02,  2.06900e-02, -8.46000e-03, -2.49600e-03, -2.85800e-05,  3.47500e-05,  3.03000e-05],
                           [-2.96100e-01,  8.18200e-02,  3.41500e-02, -9.07200e-04, -1.01600e-03, -5.05900e-04, -3.59900e-04, -8.57100e-05],
                           [-1.81200e-01,  2.49300e-02,  2.48500e-02,  6.42400e-03,  1.95600e-03, -9.11700e-05, -5.06700e-04, -2.04100e-04],
                           [-1.12700e-01, -3.31200e-02,  1.15500e-02,  9.84300e-03,  2.44500e-03, -2.95900e-05, -3.71400e-04, -1.28600e-04],
                           [-5.42800e-02, -6.58100e-02,  1.91900e-03,  9.62200e-03,  1.60700e-03, -3.42500e-04, -2.35900e-04, -1.85400e-06]])

# Reaction 5
chebyshev_reaction('O2 + gR (+ M) <=> gRO2 (+ M)',
                   Tmin=180.0, Tmax=1500.0,
                   Pmin=(0.01, 'atm'), Pmax=(98.692, 'atm'),
                   coeffs=[[ 9.76700e+00,  3.63100e-01, -5.21600e-02,  6.78100e-03, -1.19200e-03, -1.59300e-05,  1.65200e-04,  4.53000e-05],
                           [-1.48600e+00,  6.79400e-01, -8.77100e-02,  9.11000e-03, -1.29400e-03, -2.26800e-04,  3.46500e-04,  6.94500e-05],
                           [-9.72500e-01,  5.58900e-01, -4.86200e-02,  2.32000e-04,  4.21800e-04, -3.53300e-04,  2.71700e-04,  4.14200e-05],
                           [-7.22200e-01,  4.01900e-01, -4.65200e-03, -7.16800e-03,  1.29300e-03, -1.83300e-04,  9.68400e-05,  1.18500e-05],
                           [-5.39400e-01,  2.45800e-01,  2.90900e-02, -9.33100e-03,  8.59300e-04,  1.68200e-04, -9.90800e-05, -2.53000e-05],
                           [-3.87900e-01,  1.15600e-01,  4.58300e-02, -6.23000e-03, -2.46300e-04,  3.89800e-04, -2.27800e-04, -6.67700e-05],
                           [-2.64100e-01,  2.16300e-02,  4.65900e-02, -3.11800e-04, -1.08700e-03,  2.80700e-04, -2.67600e-04, -9.35900e-05],
                           [-1.67400e-01, -3.65400e-02,  3.66200e-02,  5.56000e-03, -1.13400e-03, -1.13100e-04, -2.57400e-04, -8.75100e-05],
                           [-9.56700e-02, -6.48700e-02,  2.18400e-02,  9.45700e-03, -4.56600e-04, -5.80000e-04, -2.42100e-04, -4.81800e-05],
                           [-4.57500e-02, -7.10000e-02,  6.89300e-03,  1.07000e-02,  5.15300e-04, -9.02300e-04, -2.32700e-04,  6.40700e-06]])
#  gRO2(+M) <=> gQOOH[O](+M)                           1.000e+00 0.000     0.000
#      TCHEB/ 180.000   1500.000 /
#      PCHEB/ 0.010     98.692   /
#      CHEB/ 10 8/
#      CHEB/ -9.980e+00   2.080e+00    2.402e-03    -3.696e-03   -2.051e-03  /
#      CHEB/ -3.287e-04   1.404e-04    3.913e-05    5.260e+00    2.216e-01   /
#      CHEB/ 4.935e-02    1.161e-02    1.140e-03    -2.023e-04   -2.274e-05  /
#      CHEB/ -2.258e-05   -2.703e+00   1.500e-01    2.422e-02    2.487e-04   /
#      CHEB/ -2.040e-03   -5.562e-04   8.467e-05    3.858e-05    -1.323e+00  /
#      CHEB/ 1.170e-01    3.217e-02    4.645e-03    -2.820e-04   -2.957e-04  /
#      CHEB/ -1.014e-04   -4.950e-05   -7.852e-01   7.078e-02    3.383e-02   /
#      CHEB/ 6.636e-03    4.958e-04    -2.695e-04   -2.612e-04   -9.102e-05  /
#      CHEB/ -4.152e-01   1.774e-02    2.787e-02    6.308e-03    5.230e-04   /
#      CHEB/ -3.432e-04   -3.376e-04   -8.414e-05   -2.612e-01   -2.166e-02  /
#      CHEB/ 2.325e-02    8.227e-03    1.374e-03    -3.495e-04   -4.723e-04  /
#      CHEB/ -1.138e-04   -1.889e-01   -4.965e-02   1.578e-02    9.755e-03   /
#      CHEB/ 2.266e-03    -3.047e-04   -5.427e-04   -1.352e-04   -5.839e-02  /
#      CHEB/ -6.579e-02   4.591e-03    8.755e-03    2.117e-03    -4.802e-04  /
#      CHEB/ -5.010e-04   -7.277e-05   -5.563e-02   -6.462e-02   -3.095e-03  /
#      CHEB/ 8.955e-03    2.779e-03    -3.681e-04   -4.450e-04   -7.165e-05  /

# Reaction 6
chebyshev_reaction('gQOOHa (+ M) <=> gQOOH[O] (+ M)',
                   Tmin=180.0, Tmax=1500.0,
                   Pmin=(0.01, 'atm'), Pmax=(98.692, 'atm'),
                   coeffs=[[-1.03500e+01,  1.05800e+00,  7.11300e-04,  3.37900e-02,  8.29300e-04, -1.05200e-03, -1.58200e-04,  9.56700e-06],
                           [-2.54900e+00,  1.01200e+00,  1.75300e-01, -1.80400e-02,  1.38900e-03, -6.92900e-04, -1.44600e-04,  3.26900e-04],
                           [-3.66500e+00,  1.45300e-01,  6.89300e-02,  1.96500e-03, -7.68100e-03, -2.85000e-03, -1.92800e-04,  6.88000e-05],
                           [-1.57700e+00, -3.99800e-02, -7.94400e-03,  1.72900e-02,  9.17200e-04, -2.39000e-03, -7.17700e-04,  2.27100e-05],
                           [-6.84200e-01,  6.09400e-02, -1.14700e-02,  8.76000e-03,  2.86100e-03, -7.86800e-04, -5.83400e-04, -2.30800e-05],
                           [-2.84000e-01,  9.89600e-02,  1.96600e-02,  7.81500e-03,  1.36100e-03, -1.00400e-03, -5.27700e-04, -4.72600e-05],
                           [-2.22300e-01,  1.72600e-02,  4.05800e-02,  1.69700e-02,  2.22600e-03, -1.60800e-03, -9.28500e-04, -4.04300e-05],
                           [-2.01500e-01, -7.33300e-02,  2.20700e-02,  1.92200e-02,  4.52300e-03, -1.20100e-03, -1.14000e-03, -1.01200e-04],
                           [-6.51600e-02, -9.98500e-02, -1.44100e-02,  1.16500e-02,  4.96500e-03, -2.95100e-04, -8.75500e-04, -1.96900e-04],
                           [-5.79700e-02, -7.50400e-02, -1.33100e-02,  6.13600e-03,  3.10600e-03, -2.08900e-04, -6.75100e-04, -1.18800e-04]])

# Reaction 7
chebyshev_reaction('gQOOHg (+ M) <=> gQOOH[O] (+ M)',
                   Tmin=180.0, Tmax=1500.0,
                   Pmin=(0.01, 'atm'), Pmax=(98.692, 'atm'),
                   coeffs=[[-7.88600e+00,  2.40300e+00,  8.63600e-02, -1.93300e-02, -7.49400e-03,  7.23200e-03,  2.68400e-03, -1.86000e-03],
                           [-5.47300e+00, -1.23500e-01, -1.53200e-02,  4.66900e-02,  1.53700e-02, -6.72400e-03, -3.07000e-03,  1.99700e-03],
                           [-2.98500e+00,  5.52900e-02, -1.90800e-02, -1.82600e-02, -8.24700e-03, -1.13800e-03,  3.93000e-04, -4.40400e-04],
                           [-1.31300e+00,  1.12300e-01,  3.46900e-02,  6.87500e-03,  1.61300e-03, -1.24500e-04, -9.96200e-04, -5.89400e-04],
                           [-6.71200e-01,  6.65000e-02,  4.02100e-02,  1.34000e-02,  3.86000e-03, -1.37100e-05, -7.05800e-04, -1.11900e-04],
                           [-3.50000e-01,  1.82400e-02,  2.81600e-02,  6.49200e-03,  1.94700e-03,  1.00500e-03, -2.09000e-05, -3.72100e-04],
                           [-2.45200e-01, -3.08600e-02,  2.18200e-02,  8.68300e-03,  2.03600e-03,  4.14200e-04, -2.38200e-04, -3.46200e-04],
                           [-1.57300e-01, -6.31200e-02,  1.01200e-02,  1.19200e-02,  4.61900e-03, -6.19400e-04, -1.33100e-03, -1.41400e-04],
                           [-2.71800e-02, -8.28000e-02,  3.63700e-04,  7.80400e-03,  1.44500e-03,  1.99900e-04,  2.00400e-04, -2.39200e-04],
                           [-1.06800e-01, -5.00600e-02, -3.90000e-03,  8.92600e-03,  4.99500e-03,  2.56400e-04, -9.96200e-04, -2.88300e-04]])

# Reaction 8
chebyshev_reaction('gQOOHb (+ M) <=> gQOOH[O] (+ M)',
                   Tmin=180.0, Tmax=1500.0,
                   Pmin=(0.01, 'atm'), Pmax=(98.692, 'atm'),
                   coeffs=[[-1.41500e+01,  1.71800e+00, -2.30500e-02,  3.94100e-02,  4.63900e-03, -2.42900e-03,  8.64900e-04,  9.79300e-05],
                           [ 1.04200e+00,  1.42700e+00,  1.92800e-01, -3.53000e-02, -1.29000e-02,  1.64500e-03,  2.43200e-04,  5.47800e-04],
                           [-2.23400e+00,  1.62100e-01,  1.07900e-02,  1.50300e-02, -6.54000e-03, -3.33400e-03, -9.06100e-04, -3.60800e-04],
                           [-1.27600e+00, -1.50900e-01, -4.24000e-02,  2.72100e-02,  1.04600e-02, -1.37000e-04, -1.22300e-03, -4.73600e-04],
                           [-7.96500e-01, -5.88300e-02, -1.46300e-02,  7.34900e-03,  5.98000e-03,  1.42500e-03, -2.99900e-05, -3.04600e-05],
                           [-4.03000e-01,  5.14200e-02,  1.21000e-02, -4.04200e-03, -5.01100e-04, -6.70900e-06,  1.49200e-04,  8.72100e-05],
                           [-2.59800e-01,  6.76400e-02,  3.26200e-02, -6.61500e-04, -1.38000e-03, -4.43200e-04, -3.23900e-04, -9.43100e-05],
                           [-2.07000e-01,  2.24200e-02,  3.27500e-02,  5.57600e-03,  4.70400e-04, -1.17000e-04, -5.13100e-04, -1.74300e-04],
                           [-7.03200e-02, -3.59100e-02,  8.25000e-03,  8.32500e-03,  2.73500e-03,  4.41900e-05, -3.78300e-04, -1.94600e-04],
                           [-8.09100e-02, -6.89300e-02,  5.49400e-03,  9.55000e-03,  1.92100e-03, -2.13200e-04, -3.52500e-04, -2.60700e-05]])

# Reaction 9
chebyshev_reaction('O2 + gR (+ M) <=> gQOOH[O] (+ M)',
                   Tmin=180.0, Tmax=1500.0,
                   Pmin=(0.01, 'atm'), Pmax=(98.692, 'atm'),
                   coeffs=[[-2.25000e+00,  5.68500e-01,  7.86400e-02,  6.94400e-02,  2.15200e-02,  6.24600e-03,  1.56400e-03,  3.79000e-04],
                           [-2.02000e+00,  4.76800e-01, -2.18100e-01, -5.42200e-02, -2.44900e-02, -6.47500e-03, -8.69200e-04, -1.54100e-04],
                           [-9.16500e-01,  5.17300e-01, -7.20700e-02, -8.84500e-03, -2.23300e-03, -1.31700e-03, -3.16600e-04, -2.50800e-04],
                           [-5.76100e-01,  4.23600e-01,  7.70800e-03, -2.33500e-03,  2.56800e-03,  1.15300e-04,  2.33200e-04,  8.10400e-05],
                           [-5.01700e-01,  2.67000e-01,  4.03400e-02, -5.59000e-03,  1.54300e-03,  3.37100e-04,  9.26100e-05,  9.63700e-05],
                           [-2.96100e-01,  1.09200e-01,  4.36100e-02, -5.90400e-03,  4.16500e-04,  5.96500e-04, -2.95000e-04, -1.29000e-04],
                           [-2.32600e-01,  2.02200e-02,  4.66200e-02,  4.87900e-04, -4.01800e-04,  5.73000e-04, -2.28000e-04, -1.17700e-04],
                           [-1.99100e-01, -2.84900e-02,  3.95200e-02,  5.19500e-03, -2.09200e-03, -5.29600e-04, -2.61300e-04, -2.01400e-05],
                           [-5.10200e-02, -7.48800e-02,  1.70200e-02,  8.41900e-03, -2.25200e-04, -3.92100e-04, -2.66700e-04, -1.13200e-04],
                           [-7.66500e-02, -6.69900e-02,  9.26200e-03,  1.16200e-02,  6.60700e-04, -9.64600e-04, -2.71100e-04,  1.25600e-05]])
#  gRO2(+M) <=> gQOOHa(+M)                             1.000e+00 0.000     0.000
#      TCHEB/ 180.000   1500.000 /
#      PCHEB/ 0.010     98.692   /
#      CHEB/ 10 8/
#      CHEB/ -5.552e+00   7.779e-01    6.392e-02    -3.626e-04   -4.370e-03  /
#      CHEB/ 3.581e-05    4.443e-05    8.240e-05    2.983e+00    1.104e+00   /
#      CHEB/ 1.396e-01    -2.402e-03   -4.349e-03   -1.012e-03   2.218e-04   /
#      CHEB/ 9.740e-05    -3.116e+00   3.270e-01    9.807e-02    7.404e-03   /
#      CHEB/ -4.835e-04   -1.201e-03   -3.259e-05   6.530e-05    -1.642e+00  /
#      CHEB/ -4.366e-02   1.768e-02    1.104e-02    1.402e-03    -6.374e-04  /
#      CHEB/ -2.569e-04   1.682e-05    -7.204e-01   -3.137e-03   -6.173e-03  /
#      CHEB/ 3.303e-03    5.284e-04    -3.412e-04   -2.551e-04   -1.498e-05  /
#      CHEB/ -3.549e-01   7.162e-02    2.869e-02    3.645e-03    -1.404e-03  /
#      CHEB/ -9.060e-04   -3.104e-04   -3.727e-06   -2.517e-01   1.755e-02   /
#      CHEB/ 4.791e-02    1.440e-02    -1.268e-04   -1.533e-03   -6.080e-04  /
#      CHEB/ -2.195e-05   -1.682e-01   -7.027e-02   2.412e-02    1.892e-02   /
#      CHEB/ 3.386e-03    -1.170e-03   -8.104e-04   -9.053e-05   -1.200e-01  /
#      CHEB/ -9.429e-02   -7.359e-03   1.274e-02    4.322e-03    -3.763e-04  /
#      CHEB/ -6.527e-04   -9.613e-05   -2.365e-02   -6.926e-02   -1.545e-02  /
#      CHEB/ 6.036e-03    2.625e-03    -4.181e-04   -4.085e-04   -1.247e-05  /
#  gQOOH[O](+M) <=> gQOOHa(+M)                         1.000e+00 0.000     0.000
#      TCHEB/ 180.000   1500.000 /
#      PCHEB/ 0.010     98.692   /
#      CHEB/ 10 8/
#      CHEB/ -3.695e+00   1.058e+00    7.113e-04    3.379e-02    8.293e-04   /
#      CHEB/ -1.052e-03   -1.582e-04   9.567e-06    -7.153e+00   1.012e+00   /
#      CHEB/ 1.753e-01    -1.804e-02   1.389e-03    -6.929e-04   -1.446e-04  /
#      CHEB/ 3.269e-04    -3.676e+00   1.453e-01    6.893e-02    1.965e-03   /
#      CHEB/ -7.681e-03   -2.850e-03   -1.928e-04   6.880e-05    -1.627e+00  /
#      CHEB/ -3.998e-02   -7.944e-03   1.729e-02    9.172e-04    -2.390e-03  /
#      CHEB/ -7.177e-04   2.271e-05    -7.093e-01   6.094e-02    -1.147e-02  /
#      CHEB/ 8.760e-03    2.861e-03    -7.868e-04   -5.834e-04   -2.308e-05  /
#      CHEB/ -2.933e-01   9.896e-02    1.966e-02    7.815e-03    1.361e-03   /
#      CHEB/ -1.004e-03   -5.277e-04   -4.726e-05   -2.256e-01   1.726e-02   /
#      CHEB/ 4.058e-02    1.697e-02    2.226e-03    -1.608e-03   -9.285e-04  /
#      CHEB/ -4.043e-05   -2.028e-01   -7.333e-02   2.207e-02    1.922e-02   /
#      CHEB/ 4.523e-03    -1.201e-03   -1.140e-03   -1.012e-04   -6.562e-02  /
#      CHEB/ -9.985e-02   -1.441e-02   1.165e-02    4.965e-03    -2.951e-04  /