units(length='cm', time='s', quantity='mol', act_energy='kcal/mol')

ideal_gas(name='gas',
          elements="H D T C Ci O Oi N Ne Ar He Si S F Cl Br I X",
          species="""aOOHbalkene      OH               ibutanal
                     aR               performic_acid   disub_c4ether
                     aQOOHb           H                aadduct
                     trisub_epoxy     ibutenol         aQOOH[O]
                     ipropyl          aRO2             O2
                     formic_acid      propene          aQOOHg
                     ibut_peroxyacid  HO2              CH3""",
          reactions='all',
          initial_state=state(temperature=300.0, pressure=OneAtm))

#-------------------------------------------------------------------------------
# Element data
#-------------------------------------------------------------------------------

element(symbol='Ci', atomic_mass=13.003)
element(symbol='D', atomic_mass=2.014)
element(symbol='Oi', atomic_mass=18.0)
element(symbol='T', atomic_mass=3.016)
element(symbol='X', atomic_mass=195.083)
#-------------------------------------------------------------------------------
# Species data
#-------------------------------------------------------------------------------

species(name='aOOHbalkene',
        atoms='C:3 H:6 O:3',
        thermo=(NASA([10.00, 497.41],
                     [ 3.76691735E+00,  1.51417956E-02,  1.85499431E-04,
                      -4.61303214E-07,  3.27678941E-10, -3.11719247E+04,
                       1.09903968E+01]),
                NASA([497.41, 3000.00],
                     [ 6.20882781E+00,  4.08866173E-02, -2.89934946E-05,
                       9.60428979E-09, -1.19355432E-12, -3.19762540E+04,
                      -4.72842811E+00])))

species(name='OH',
        atoms='H:1 O:1',
        thermo=(NASA([10.00, 984.14],
                     [ 3.49686242E+00,  1.83973160E-04, -9.97634499E-07,
                       1.56942783E-09, -6.10128175E-13,  3.41673934E+03,
                       1.48093120E+00]),
                NASA([984.14, 3000.00],
                     [ 3.45221464E+00, -2.95124034E-04,  7.39418622E-07,
                      -2.89309866E-10,  3.53041498E-14,  3.45751599E+03,
                       1.85813897E+00])))

species(name='ibutanal',
        atoms='C:4 H:8 O:1',
        thermo=(NASA([10.00, 683.88],
                     [ 3.57157346E+00,  3.36936906E-02, -1.78475021E-05,
                       1.31946716E-08, -7.58008388E-12, -2.73947312E+04,
                       1.05595084E+01]),
                NASA([683.88, 3000.00],
                     [ 1.29043622E+00,  4.14804229E-02, -2.27411206E-05,
                       6.08619500E-09, -6.38995128E-13, -2.69528120E+04,
                       2.16477430E+01])))

species(name='aR',
        atoms='C:4 H:9 O:1',
        thermo=(NASA([10.00, 455.22],
                     [ 3.59625500E+00,  3.38947981E-02,  7.37257079E-06,
                      -3.99275335E-08,  2.49019944E-11, -1.44820634E+04,
                       1.18269265E+01]),
                NASA([455.22, 3000.00],
                     [ 2.49586309E+00,  4.35639890E-02, -2.44887770E-05,
                       6.73363769E-09, -7.23862433E-13, -1.43818802E+04,
                       1.62696907E+01])))

species(name='performic_acid',
        atoms='C:1 H:2 O:3',
        thermo=(NASA([10.00, 590.95],
                     [ 3.92633851E+00,  4.24517168E-03,  6.71106764E-05,
                      -1.36545385E-07,  8.03337864E-11, -3.63028176E+04,
                       8.06485813E+00]),
                NASA([590.95, 3000.00],
                     [ 4.39992934E+00,  1.85411415E-02, -1.36005501E-05,
                       4.62292431E-09, -5.88463603E-13, -3.66643888E+04,
                       3.44353230E+00])))

species(name='disub_c4ether',
        atoms='C:4 H:8 O:2',
        thermo=(NASA([10.00, 413.50],
                     [ 3.78241323E+00,  1.89501763E-02,  8.65302396E-05,
                      -1.80580575E-07,  1.13656264E-10, -3.90105331E+04,
                       1.09982450E+01]),
                NASA([413.50, 3000.00],
                     [ 4.29420885E-01,  5.13851903E-02, -3.11292293E-05,
                       9.11498284E-09, -1.03192718E-12, -3.87332387E+04,
                       2.42134976E+01])))

species(name='aQOOHb',
        atoms='C:4 H:9 O:3',
        thermo=(NASA([10.00, 412.78],
                     [ 3.15498836E+00,  8.55068303E-02, -2.35307993E-04,
                       4.71983261E-07, -3.62709267E-10, -2.82795339E+04,
                       1.52522123E+01]),
                NASA([412.78, 3000.00],
                     [ 4.18099845E+00,  5.26168288E-02, -3.23998410E-05,
                       9.59389339E-09, -1.09464519E-12, -2.81687390E+04,
                       1.35782328E+01])))

species(name='H',
        atoms='H:1',
        thermo=(NASA([10.00, 794.01],
                     [ 2.50000000E+00,  1.99051163E-15, -1.19089508E-17,
                       2.10805655E-20, -1.11017699E-23,  2.54725594E+04,
                      -4.61279342E-01]),
                NASA([794.01, 3000.00],
                     [ 2.50000000E+00,  1.52667235E-14, -1.58445285E-17,
                       6.63088600E-21, -9.62111674E-25,  2.54725594E+04,
                      -4.61279342E-01])))

species(name='aadduct',
        atoms='C:4 H:9 O:3',
        thermo=(NASA([10.00, 449.84],
                     [ 3.06901904E+00,  9.20724491E-02, -2.68085092E-04,
                       5.15249897E-07, -3.68046586E-10, -2.95707161E+04,
                       1.46591735E+01]),
                NASA([449.84, 3000.00],
                     [ 4.11210745E+00,  5.16955724E-02, -2.97401041E-05,
                       8.32758939E-09, -9.08861448E-13, -2.93498751E+04,
                       1.39578825E+01])))

species(name='trisub_epoxy',
        atoms='C:4 H:8 O:2',
        thermo=(NASA([10.00, 209.19],
                     [ 3.75295042E+00,  2.37546930E-02,  1.26610110E-04,
                      -4.78364365E-07,  5.79468168E-10, -3.81473213E+04,
                       1.12739684E+01]),
                NASA([209.19, 3000.00],
                     [ 2.64185254E+00,  4.50006531E-02, -2.57361066E-05,
                       7.15266054E-09, -7.72980731E-13, -3.81008358E+04,
                       1.48960343E+01])))

species(name='ibutenol',
        atoms='C:4 H:8 O:1',
        thermo=(NASA([10.00, 135.97],
                     [ 3.95714996E+00,  5.72646980E-03,  4.63611760E-04,
                      -3.04137514E-06,  6.85019471E-09, -2.30135294E+04,
                       8.21931848E+00]),
                NASA([135.97, 3000.00],
                     [ 3.32467612E+00,  3.69033556E-02, -1.89960416E-05,
                       4.73417677E-09, -4.59705291E-13, -2.30079507E+04,
                       9.58133237E+00])))

species(name='aQOOH[O]',
        atoms='C:4 H:9 O:3',
        thermo=(NASA([10.00, 488.36],
                     [ 3.54559533E+00,  3.89536133E-02,  8.47689703E-05,
                      -2.45147486E-07,  1.76157259E-10, -2.40065439E+04,
                       1.34685910E+01]),
                NASA([488.36, 3000.00],
                     [ 3.94214913E+00,  5.71928314E-02, -3.72516212E-05,
                       1.15209013E-08, -1.35808341E-12, -2.43015048E+04,
                       9.21628964E+00])))

species(name='ipropyl',
        atoms='C:3 H:7',
        thermo=(NASA([10.00, 421.76],
                     [ 3.73943775E+00,  3.10070157E-02, -1.51196908E-04,
                       4.35367329E-07, -3.85565052E-10,  9.49213457E+03,
                       7.79448918E+00]),
                NASA([421.76, 3000.00],
                     [-4.74526725E-01,  3.20862468E-02, -1.67340747E-05,
                       4.21365136E-09, -4.13155573E-13,  1.01934458E+04,
                       2.85865912E+01])))

species(name='aRO2',
        atoms='C:4 H:9 O:3',
        thermo=(NASA([10.00, 670.36],
                     [ 3.45405325E+00,  4.74751311E-02,  9.77507759E-06,
                      -6.31019603E-08,  3.75500067E-11, -3.09849410E+04,
                       1.39284976E+01]),
                NASA([670.36, 3000.00],
                     [ 5.04137652E+00,  5.19952978E-02, -3.16472789E-05,
                       9.22798587E-09, -1.03598915E-12, -3.15121336E+04,
                       4.56056770E+00])))

species(name='O2',
        atoms='O:2',
        thermo=(NASA([10.00, 605.96],
                     [ 3.50743498E+00, -4.43860349E-04,  1.45938058E-06,
                       1.61509333E-09, -2.32050052E-12, -9.24756224E+02,
                       4.72183634E+00]),
                NASA([605.96, 3000.00],
                     [ 2.87462882E+00,  2.17840991E-03, -1.18262921E-06,
                       2.86910493E-10, -2.53297146E-14, -8.19517838E+02,
                       7.69331810E+00])))

species(name='formic_acid',
        atoms='C:1 H:2 O:2',
        thermo=(NASA([10.00, 741.38],
                     [ 4.06855785E+00, -4.74562133E-03,  4.71797900E-05,
                      -6.07490052E-08,  2.51286794E-11, -4.66880837E+04,
                       6.53681035E+00]),
                NASA([741.38, 3000.00],
                     [ 1.13645847E+00,  1.74953124E-02, -1.08112403E-05,
                       3.08075326E-09, -3.34892658E-13, -4.64297918E+04,
                       1.86149484E+01])))

species(name='propene',
        atoms='C:3 H:6',
        thermo=(NASA([10.00, 519.53],
                     [ 3.98723879E+00,  4.72040503E-04,  6.51776229E-05,
                      -9.89891002E-08,  4.91141123E-11,  2.62321891E+03,
                       6.98071210E+00]),
                NASA([519.53, 3000.00],
                     [ 3.79893331E-01,  2.82457690E-02, -1.50108430E-05,
                       3.90894069E-09, -4.00521928E-13,  2.99804626E+03,
                       2.20218922E+01])))

species(name='aQOOHg',
        atoms='C:4 H:9 O:3',
        thermo=(NASA([10.00, 455.48],
                     [ 3.62522127E+00,  2.83222320E-02,  2.08527447E-04,
                      -5.67427418E-07,  4.35169138E-10, -2.54753008E+04,
                       1.26617758E+01]),
                NASA([455.48, 3000.00],
                     [ 5.13914202E+00,  5.96270859E-02, -4.14435328E-05,
                       1.34202375E-08, -1.63474553E-12, -2.60758571E+04,
                       1.46991116E+00])))

species(name='ibut_peroxyacid',
        atoms='C:4 H:8 O:3',
        thermo=(NASA([10.00, 1386.21],
                     [ 3.50995385E+00,  4.78670384E-02, -2.40781384E-05,
                       3.71046938E-09,  3.85442115E-13, -4.83931047E+04,
                       1.22017268E+01]),
                NASA([1386.21, 3000.00],
                     [ 1.24543146E+01,  3.02396862E-02, -1.38577031E-05,
                       3.05328904E-09, -2.63982457E-13, -5.16589880E+04,
                      -3.67061828E+01])))

species(name='HO2',
        atoms='H:1 O:2',
        thermo=(NASA([10.00, 891.11],
                     [ 4.02887004E+00, -1.75769289E-03,  1.08726004E-05,
                      -1.13812972E-08,  3.90113097E-12,  4.95165001E+02,
                       4.69302008E+00]),
                NASA([891.11, 3000.00],
                     [ 3.06571044E+00,  4.28505005E-03, -2.19325920E-06,
                       5.58882699E-10, -5.61246669E-14,  5.98557610E+02,
                       8.84564156E+00])))

species(name='CH3',
        atoms='C:1 H:3',
        thermo=(NASA([10.00, 616.77],
                     [ 3.98929952E+00,  5.45150461E-04,  9.01320092E-06,
                      -1.08320497E-08,  4.38985879E-12,  1.65859883E+04,
                       2.22446886E-01]),
                NASA([616.77, 3000.00],
                     [ 3.35928237E+00,  4.63117126E-03, -9.24365433E-07,
                      -9.02514624E-11,  3.56905106E-14,  1.66637014E+04,
                       2.95743732E+00])))

#-------------------------------------------------------------------------------
# Reaction data
#-------------------------------------------------------------------------------

# Reaction 1
chebyshev_reaction('aQOOH[O] (+ M) <=> aQOOHb (+ M)',
                   Tmin=180.0, Tmax=1500.0,
                   Pmin=(0.01, 'atm'), Pmax=(98.692, 'atm'),
                   coeffs=[[-4.89700e+00,  4.26600e+00, -6.89500e-01, -5.29600e-02,  8.52000e-02, -7.66900e-03, -1.42100e-02,  4.34500e-03],
                           [-5.01200e+00,  4.85000e-01,  6.34900e-01,  2.84100e-02, -5.62100e-02,  5.11000e-03,  7.33600e-03, -1.88000e-03],
                           [-3.22600e+00, -1.54400e-01,  5.70800e-02,  1.61700e-02, -1.79400e-02,  2.79200e-03,  5.64600e-03, -2.39200e-03],
                           [-1.49600e+00, -1.88600e-01, -5.57300e-02, -2.68000e-02, -8.14800e-03,  4.05800e-03,  2.50500e-03, -2.45900e-04],
                           [-6.59700e-01, -7.04400e-02, -3.66700e-02, -3.14000e-02, -8.09600e-03,  6.13200e-04,  9.59200e-04,  7.09800e-04],
                           [-2.83300e-01, -3.16200e-03,  2.38500e-03, -1.37900e-02, -5.15400e-03, -8.67200e-04, -4.59400e-04,  1.50200e-04],
                           [-1.04300e-01,  1.14300e-02,  2.07800e-02, -1.42600e-03, -7.01200e-04,  6.08400e-04, -1.08300e-03, -4.95100e-04],
                           [-9.76800e-03,  9.61000e-03,  2.15000e-03,  1.07900e-02,  1.79400e-03, -1.32100e-03,  4.59400e-04, -1.23500e-04],
                           [ 5.74700e-03,  1.79300e-03,  3.82400e-03,  1.74000e-03,  3.73500e-03,  1.98900e-04, -9.46500e-04,  5.48700e-04],
                           [-1.30800e-02,  1.12600e-03, -9.66300e-03,  6.88100e-03,  4.32200e-05, -1.61400e-03,  1.30500e-03,  1.88500e-04]])

# Reaction 2
chebyshev_reaction('aQOOHg (+ M) <=> aQOOHb (+ M)',
                   Tmin=180.0, Tmax=1500.0,
                   Pmin=(0.01, 'atm'), Pmax=(98.692, 'atm'),
                   coeffs=[[-6.83100e+00,  3.18100e+00, -3.32800e-01, -3.52700e-02,  5.20100e-04, -1.50800e-02,  5.15700e-03,  2.77700e-03],
                           [-3.26500e+00,  1.56800e+00,  7.58100e-01, -2.11600e-02, -5.09200e-02,  1.71300e-02, -2.00400e-03, -4.01700e-03],
                           [-3.45300e+00, -5.59200e-01, -4.61800e-02,  7.32100e-02,  2.76200e-02,  1.45300e-03, -2.67800e-03, -3.17200e-04],
                           [-1.77800e+00, -6.00500e-01, -1.99900e-01, -6.70700e-05,  1.71400e-02,  2.40100e-04,  4.36300e-04,  1.20000e-03],
                           [-6.48700e-01, -2.10700e-01, -1.15200e-01, -3.00400e-02, -2.92900e-03,  1.05400e-03,  1.27600e-03,  4.28500e-05],
                           [-1.67400e-01,  3.40700e-02, -2.83000e-02, -2.13200e-02, -5.73900e-03,  9.24200e-05,  1.58800e-04, -1.57700e-04],
                           [-2.08800e-02,  7.85400e-02,  2.36800e-02, -1.15800e-03, -5.58000e-03, -1.04800e-03,  1.59100e-04, -4.54000e-05],
                           [-4.10600e-03,  2.22900e-02,  3.34500e-02,  1.27100e-02, -4.02100e-03, -1.26300e-03,  4.17400e-04, -9.18900e-05],
                           [-3.47100e-02, -2.39800e-03,  7.46800e-03,  1.02300e-02,  2.50600e-03, -8.30500e-04, -5.32300e-04,  2.42300e-04],
                           [-2.20100e-02, -3.42100e-02, -6.99000e-03,  4.13900e-03,  2.22900e-03,  5.57200e-04,  9.24700e-06, -1.85300e-04]])

# Reaction 3
chebyshev_reaction('aRO2 (+ M) <=> aQOOHb (+ M)',
                   Tmin=180.0, Tmax=1500.0,
                   Pmin=(0.01, 'atm'), Pmax=(98.692, 'atm'),
                   coeffs=[[-4.98200e+00,  1.61500e+00, -2.49200e-02,  5.64300e-02, -1.11500e-02, -3.86500e-03,  7.05200e-05, -2.64900e-04],
                           [-4.08800e-01,  1.28800e+00,  3.22500e-01,  1.00300e-02, -3.84100e-03, -4.09800e-03, -1.45900e-03,  1.27300e-04],
                           [-3.17800e+00, -2.29800e-03,  5.02200e-02,  2.86200e-02,  2.97300e-03, -1.61200e-04, -4.15900e-04,  2.63400e-05],
                           [-1.66400e+00, -2.75600e-01, -1.22700e-01, -1.88800e-02,  5.21100e-03,  3.26200e-03,  8.70600e-04,  2.06500e-04],
                           [-7.37800e-01, -9.49700e-02, -9.35600e-02, -3.81500e-02, -4.19800e-03,  1.94200e-03,  1.26400e-03,  4.06000e-04],
                           [-2.77300e-01,  5.20000e-02, -1.79900e-02, -2.00200e-02, -5.77100e-03, -5.81100e-04,  3.36100e-04,  2.38000e-04],
                           [-8.74100e-02,  7.12100e-02,  1.46100e-02, -9.60100e-04, -1.20300e-03, -6.74100e-04, -2.70100e-04, -6.81400e-05],
                           [-2.92500e-02,  4.36100e-02,  9.51100e-03,  5.60800e-03,  1.56800e-03,  1.04800e-04, -1.61600e-04, -1.33900e-04],
                           [-2.89800e-02,  2.08200e-02, -2.27700e-03,  4.26200e-03,  1.52600e-03,  3.95100e-04,  3.84300e-05, -9.02800e-05],
                           [-8.74300e-04, -1.61000e-02,  5.47700e-03, -2.74800e-03,  1.21400e-03,  4.84400e-04, -5.03900e-05,  8.23600e-06]])

# Reaction 4
chebyshev_reaction('aadduct (+ M) <=> aQOOHb (+ M)',
                   Tmin=180.0, Tmax=1500.0,
                   Pmin=(0.01, 'atm'), Pmax=(98.692, 'atm'),
                   coeffs=[[-7.39600e+00,  3.38100e-01, -4.27500e-02,  1.17900e-01, -2.72300e-02, -3.31800e-03,  4.20100e-04, -5.70600e-04],
                           [-3.33000e+00,  1.39500e+00,  3.81500e-01,  4.71400e-03, -9.58200e-04, -6.09300e-03, -1.56400e-03,  4.26200e-04],
                           [-3.64800e+00,  4.31400e-02,  6.74700e-02,  3.42300e-02,  1.49700e-03, -2.32200e-03,  9.58200e-05,  1.12000e-04],
                           [-1.77100e+00, -2.15500e-01, -1.16300e-01, -1.07000e-02,  4.42700e-03,  1.57200e-03,  9.38900e-04,  4.84100e-04],
                           [-7.55700e-01, -6.04300e-02, -8.78400e-02, -3.17800e-02, -3.97500e-03, -3.07800e-04,  1.83200e-03,  9.12100e-04],
                           [-2.89300e-01,  5.75900e-02, -1.24100e-02, -1.69400e-02, -6.12100e-03, -1.24700e-03,  2.70500e-04,  3.58400e-04],
                           [-9.70600e-02,  6.57800e-02,  1.76600e-02,  9.23800e-04, -2.06600e-03, -9.36500e-04,  1.81100e-05, -2.02700e-04],
                           [-3.33800e-02,  3.47500e-02,  1.19300e-02,  6.87300e-03,  4.84700e-04,  1.55600e-04,  2.02000e-04, -3.96900e-04],
                           [-3.22500e-02,  1.46900e-02,  3.15800e-04,  4.78000e-03,  1.24900e-03,  3.40200e-04,  1.76300e-04, -1.15000e-04],
                           [ 2.38000e-03, -2.03800e-02,  6.69800e-03, -3.14700e-03,  1.10800e-03,  5.71200e-04, -2.07700e-04,  1.02500e-04]])

# Reaction 5
chebyshev_reaction('O2 + aR (+ M) <=> aQOOHb (+ M)',
                   Tmin=180.0, Tmax=1500.0,
                   Pmin=(0.01, 'atm'), Pmax=(98.692, 'atm'),
                   coeffs=[[-2.23700e+00,  8.80000e+00,  2.39700e-01, -2.76100e-01, -1.96400e-01, -3.59100e-02,  7.55900e-02, -2.47700e-03],
                           [-1.53700e+00, -3.21800e+00,  1.00100e+00,  1.81800e-01,  8.18300e-02,  1.49700e-02, -1.04800e-01,  1.89400e-02],
                           [-1.46600e+00, -6.57300e-01, -2.99600e-01,  2.02700e-01,  3.20200e-03, -1.19300e-02,  4.07600e-02, -1.89200e-02],
                           [-8.54300e-01, -4.09900e-02, -2.07200e-01, -7.78600e-02,  6.24500e-02,  5.55400e-04, -1.06600e-02,  7.79100e-03],
                           [-3.74800e-01,  4.37200e-02, -8.20700e-02, -2.82800e-02, -5.10100e-03,  1.63700e-02, -9.81200e-03, -4.48100e-04],
                           [-1.53400e-01,  4.55400e-02, -2.96900e-02,  1.00700e-02, -6.00500e-03, -5.73700e-03,  9.88400e-03, -5.59600e-03],
                           [-5.19900e-02, -1.74200e-03,  1.56400e-02, -6.06500e-03,  5.05400e-03, -4.40600e-04, -2.03100e-03,  3.16400e-03],
                           [-6.76500e-03, -3.17700e-02,  1.93800e-02, -9.86200e-03,  3.03200e-03,  3.87200e-03, -2.92900e-03, -9.76900e-05],
                           [-2.20700e-02,  1.65400e-02, -1.41200e-02,  1.81000e-03,  1.67500e-03, -2.29300e-03,  1.53900e-03, -4.24700e-04],
                           [-1.93600e-02,  2.14100e-02, -1.66000e-02,  7.66100e-03, -3.03100e-03, -6.87500e-04,  4.78600e-04,  5.15800e-04]])
#  aQOOHb(+M) <=> aQOOH[O](+M)                         1.000e+00 0.000     0.000
#      TCHEB/ 180.000   1500.000 /
#      PCHEB/ 0.010     98.692   /
#      CHEB/ 10 8/
#      CHEB/ -1.216e+01   4.266e+00    -6.895e-01   -5.296e-02   8.520e-02   /
#      CHEB/ -7.669e-03   -1.421e-02   4.345e-03    -6.543e-01   4.850e-01   /
#      CHEB/ 6.349e-01    2.841e-02    -5.621e-02   5.110e-03    7.336e-03   /
#      CHEB/ -1.880e-03   -3.148e+00   -1.544e-01   5.708e-02    1.617e-02   /
#      CHEB/ -1.794e-02   2.792e-03    5.646e-03    -2.392e-03   -1.450e+00  /
#      CHEB/ -1.886e-01   -5.573e-02   -2.680e-02   -8.148e-03   4.058e-03   /
#      CHEB/ 2.505e-03    -2.459e-04   -6.443e-01   -7.044e-02   -3.667e-02  /
#      CHEB/ -3.140e-02   -8.096e-03   6.132e-04    9.592e-04    7.098e-04   /
#      CHEB/ -2.785e-01   -3.162e-03   2.385e-03    -1.379e-02   -5.154e-03  /
#      CHEB/ -8.672e-04   -4.594e-04   1.502e-04    -1.025e-01   1.143e-02   /
#      CHEB/ 2.078e-02    -1.426e-03   -7.012e-04   6.084e-04    -1.083e-03  /
#      CHEB/ -4.951e-04   -9.052e-03   9.610e-03    2.150e-03    1.079e-02   /
#      CHEB/ 1.794e-03    -1.321e-03   4.594e-04    -1.235e-04   5.942e-03   /
#      CHEB/ 1.793e-03    3.824e-03    1.740e-03    3.735e-03    1.989e-04   /
#      CHEB/ -9.465e-04   5.487e-04    -1.308e-02   1.126e-03    -9.663e-03  /
#      CHEB/ 6.881e-03    4.322e-05    -1.614e-03   1.305e-03    1.885e-04   /

# Reaction 6
chebyshev_reaction('aQOOHg (+ M) <=> aQOOH[O] (+ M)',
                   Tmin=180.0, Tmax=1500.0,
                   Pmin=(0.01, 'atm'), Pmax=(98.692, 'atm'),
                   coeffs=[[-2.31500e+00,  1.65600e+00, -6.19000e-02,  4.57800e-02, -6.42900e-03, -2.23000e-03,  1.50400e-03, -6.80800e-04],
                           [-5.28700e+00,  9.19700e-01,  5.39700e-02, -6.41600e-03,  1.51100e-02, -1.19600e-04, -3.00100e-03,  3.02100e-04],
                           [-3.97100e+00,  1.43900e-01, -3.56700e-02, -1.74200e-02,  3.75300e-03,  2.07200e-03, -6.34700e-04, -4.75900e-05],
                           [-1.79900e+00, -7.30800e-02, -8.13800e-02, -1.33200e-02,  5.27400e-04,  1.25300e-03,  1.15100e-03,  3.94200e-04],
                           [-7.17900e-01, -6.25200e-02, -7.82900e-02, -1.55900e-02, -1.80900e-03,  5.81900e-04,  1.27300e-03,  5.39100e-04],
                           [-2.18100e-01, -3.59500e-02, -2.24100e-02, -8.15400e-03, -7.78700e-03, -9.70800e-04,  1.31800e-03,  1.64200e-04],
                           [-2.48700e-02, -1.77300e-02,  3.04600e-02,  5.45400e-03, -9.17500e-03, -1.76200e-03,  6.42300e-04, -3.79400e-04],
                           [-1.00100e-01,  1.49200e-01, -2.18300e-03,  5.19900e-03,  7.27200e-03, -2.53800e-03, -2.20400e-03,  9.38600e-05],
                           [-3.60700e-02,  3.86300e-02,  1.59800e-02,  2.86700e-03,  6.02800e-03,  2.56900e-03, -2.16000e-03, -7.18000e-04],
                           [-7.04000e-02,  4.22100e-02, -2.59500e-02,  2.76500e-03,  9.19500e-03, -2.31800e-04, -4.69400e-04,  5.74800e-04]])

# Reaction 7
chebyshev_reaction('aRO2 (+ M) <=> aQOOH[O] (+ M)',
                   Tmin=180.0, Tmax=1500.0,
                   Pmin=(0.01, 'atm'), Pmax=(98.692, 'atm'),
                   coeffs=[[-5.90700e+00,  4.20300e+00, -6.84100e-01, -3.56100e-02,  7.52200e-02, -1.08800e-02, -9.05500e-03,  3.16000e-03],
                           [ 1.61300e+00, -1.57100e-01,  5.06200e-01, -6.08300e-02, -5.92500e-02,  2.42700e-02,  5.68300e-03, -4.94300e-03],
                           [-3.65100e+00, -2.50400e-01,  5.00000e-02,  3.35800e-02, -1.87700e-02, -4.45900e-03,  3.85300e-03,  4.22000e-04],
                           [-1.75000e+00, -1.72100e-01, -2.85300e-02,  1.65200e-02,  6.09100e-04, -3.36500e-03,  5.56500e-04,  4.71700e-04],
                           [-7.85400e-01, -4.69700e-02, -3.71600e-02, -2.86100e-03,  2.74900e-03, -4.75600e-04, -1.48300e-04,  2.68000e-04],
                           [-3.24900e-01,  2.09800e-02, -1.12800e-02, -8.16900e-03, -7.81500e-04,  2.29700e-04, -1.11500e-06,  4.60600e-05],
                           [-1.16100e-01,  3.81100e-02,  1.39100e-02, -5.37000e-03, -2.15100e-03,  8.33500e-04, -4.26500e-04, -1.82700e-04],
                           [-1.67400e-02,  3.21400e-02,  2.71200e-03,  7.21300e-03, -1.19700e-04, -1.62000e-03,  4.90600e-04, -3.40100e-05],
                           [-1.45300e-03,  1.21700e-02,  6.24800e-03,  4.32900e-04,  3.40800e-03,  1.19300e-04, -1.11200e-03,  4.16700e-04],
                           [-1.56000e-02, -3.58100e-03, -9.39200e-03,  6.69100e-03,  7.37300e-04, -1.36100e-03,  1.14200e-03,  1.03400e-04]])

# Reaction 8
chebyshev_reaction('aadduct (+ M) <=> aQOOH[O] (+ M)',
                   Tmin=180.0, Tmax=1500.0,
                   Pmin=(0.01, 'atm'), Pmax=(98.692, 'atm'),
                   coeffs=[[-8.34600e+00,  2.95500e+00, -7.00900e-01,  2.02700e-02,  5.90700e-02, -8.85000e-03, -8.63600e-03,  2.68100e-03],
                           [-1.35300e+00,  1.09900e-02,  5.68100e-01, -7.72000e-02, -5.79600e-02,  2.44500e-02,  5.45700e-03, -4.94500e-03],
                           [-4.16300e+00, -1.53000e-01,  6.85900e-02,  2.95700e-02, -2.05600e-02, -4.31700e-03,  4.38700e-03,  2.39000e-04],
                           [-1.89300e+00, -6.58600e-02, -2.16700e-02,  1.69100e-02, -6.47500e-04, -3.35100e-03,  5.17200e-04,  5.52900e-04],
                           [-8.32800e-01,  2.61600e-02, -3.14800e-02, -2.61500e-03,  2.74700e-03, -1.49900e-03,  3.10800e-04,  6.46900e-04],
                           [-3.60100e-01,  5.71500e-02, -6.72800e-03, -9.66200e-03, -1.10900e-03,  4.71100e-04, -1.53900e-04,  8.75100e-05],
                           [-1.43100e-01,  5.61500e-02,  1.55200e-02, -6.50200e-03, -2.87200e-03,  1.11800e-03, -2.54800e-04, -3.50900e-04],
                           [-3.32500e-02,  4.05300e-02,  3.62100e-03,  6.56000e-03, -9.26000e-04, -1.27500e-03,  7.54100e-04, -3.09500e-04],
                           [-1.32400e-02,  1.84100e-02,  7.13400e-03, -3.70600e-04,  3.26300e-03,  2.01700e-04, -1.03700e-03,  4.08200e-04],
                           [-1.81900e-02,  5.91900e-04, -9.29400e-03,  5.83900e-03,  9.54600e-04, -1.21100e-03,  9.18200e-04,  1.95400e-04]])

# Reaction 9
chebyshev_reaction('O2 + aR (+ M) <=> aQOOH[O] (+ M)',
                   Tmin=180.0, Tmax=1500.0,
                   Pmin=(0.01, 'atm'), Pmax=(98.692, 'atm'),
                   coeffs=[[ 1.00700e+00,  5.34400e+00,  5.73000e-02,  5.73000e-02, -1.62600e-01, -1.41600e-01,  7.46900e-02,  6.94200e-02],
                           [-2.02800e+00, -2.40200e+00,  7.38500e-01, -1.09600e-01,  1.56300e-01,  1.37800e-01, -1.11700e-01, -7.38200e-02],
                           [-1.20400e+00, -6.11900e-01, -3.34200e-01,  2.52500e-01, -2.79000e-02,  1.00000e-02,  2.12200e-02, -1.05400e-02],
                           [-7.97600e-01, -2.64700e-02, -2.83200e-01,  1.38600e-02,  6.65700e-02, -4.52700e-02,  2.19000e-02,  9.81100e-03],
                           [-4.37100e-01,  6.03700e-03, -1.28100e-02, -1.28900e-01,  3.81800e-02,  2.07500e-02, -2.26700e-02,  1.06900e-02],
                           [-2.03300e-01,  6.00500e-04,  2.55200e-02, -3.75000e-02, -4.32600e-02,  3.99800e-02, -6.81500e-03, -8.12700e-03],
                           [-5.63200e-02, -7.27600e-03,  1.51100e-03,  2.98200e-02, -2.56700e-02, -1.64700e-02,  2.50100e-02, -8.89000e-03],
                           [-2.33800e-02,  5.56600e-02, -1.12600e-02,  9.44000e-03,  1.14300e-02, -2.12900e-02,  7.10800e-03,  6.63100e-03],
                           [ 4.07900e-02, -4.64900e-02,  4.14200e-02, -5.43800e-03, -2.60400e-03,  1.36300e-02, -1.89800e-02,  9.62800e-03],
                           [-4.99000e-02,  6.37400e-02, -1.57800e-02, -1.27500e-02,  1.45800e-02, -1.11500e-03, -1.55900e-05, -6.02900e-03]])
#  aQOOHb(+M) <=> aQOOHg(+M)                           1.000e+00 0.000     0.000
#      TCHEB/ 180.000   1500.000 /
#      PCHEB/ 0.010     98.692   /
#      CHEB/ 10 8/
#      CHEB/ -1.231e+01   3.181e+00    -3.328e-01   -3.527e-02   5.201e-04   /
#      CHEB/ -1.508e-02   5.157e-03    2.777e-03    -1.619e-01   1.568e+00   /
#      CHEB/ 7.581e-01    -2.116e-02   -5.092e-02   1.713e-02    -2.004e-03  /
#      CHEB/ -4.017e-03   -3.230e+00   -5.592e-01   -4.618e-02   7.321e-02   /
#      CHEB/ 2.762e-02    1.453e-03    -2.678e-03   -3.172e-04   -1.684e+00  /
#      CHEB/ -6.005e-01   -1.999e-01   -6.707e-05   1.714e-02    2.401e-04   /
#      CHEB/ 4.363e-04    1.200e-03    -6.205e-01   -2.107e-01   -1.152e-01  /
#      CHEB/ -3.004e-02   -2.929e-03   1.054e-03    1.276e-03    4.285e-05   /
#      CHEB/ -1.595e-01   3.407e-02    -2.830e-02   -2.132e-02   -5.739e-03  /
#      CHEB/ 9.242e-05    1.588e-04    -1.577e-04   -1.837e-02   7.854e-02   /
#      CHEB/ 2.368e-02    -1.158e-03   -5.580e-03   -1.048e-03   1.591e-04   /
#      CHEB/ -4.540e-05   -3.376e-03   2.229e-02    3.345e-02    1.271e-02   /
#      CHEB/ -4.021e-03   -1.263e-03   4.174e-04    -9.189e-05   -3.469e-02  /
#      CHEB/ -2.398e-03   7.468e-03    1.023e-02    2.506e-03    -8.305e-04  /
#      CHEB/ -5.323e-04   2.423e-04    -2.215e-02   -3.421e-02   -6.990e-03  /
#      CHEB/ 4.139e-03    2.229e-03    5.572e-04    9.247e-06    -1.853e-04  /
#  aQOOH[O](+M) <=> aQOOHg(+M)                         1.000e+00 0.000     0.000
#      TCHEB/ 180.000   1500.000 /
#      PCHEB/ 0.010     98.692   /
#      CHEB/ 10 8/
#      CHEB/ -5.267e-01   1.656e+00    -6.190e-02   4.578e-02    -6.429e-03  /
#      CHEB/ -2.230e-03   1.504e-03    -6.808e-04   -6.542e+00   9.197e-01   /
#      CHEB/ 5.397e-02    -6.416e-03   1.511e-02    -1.196e-04   -3.001e-03  /
#      CHEB/ 3.021e-04    -3.825e+00   1.439e-01    -3.567e-02   -1.742e-02  /
#      CHEB/ 3.753e-03    2.072e-03    -6.347e-04   -4.759e-05   -1.751e+00  /
#      CHEB/ -7.308e-02   -8.138e-02   -1.332e-02   5.274e-04    1.253e-03   /
#      CHEB/ 1.151e-03    3.942e-04    -7.051e-01   -6.252e-02   -7.829e-02  /
#      CHEB/ -1.559e-02   -1.809e-03   5.819e-04    1.273e-03    5.391e-04   /