units(length='cm', time='s', quantity='mol', act_energy='kcal/mol')

ideal_gas(name='gas',
          elements="H D T C Ci O Oi N Ne Ar He Si S F Cl Br I X",
          species="""OH             bQOOH[O]       acetone
                     H2O            balkoxyketone  ibutenol
                     trisub_epoxy   bQOOHg         CH2O
                     galkene        O2             bR
                     bQOOHa         bRO2           disub_epoxy
                     HO2""",
          reactions='all',
          initial_state=state(temperature=300.0, pressure=OneAtm))

#-------------------------------------------------------------------------------
# Element data
#-------------------------------------------------------------------------------

element(symbol='Ci', atomic_mass=13.003)
element(symbol='D', atomic_mass=2.014)
element(symbol='Oi', atomic_mass=18.0)
element(symbol='T', atomic_mass=3.016)
element(symbol='X', atomic_mass=195.083)
#-------------------------------------------------------------------------------
# Species data
#-------------------------------------------------------------------------------

species(name='OH',
        atoms='H:1 O:1',
        thermo=(NASA([10.00, 984.14],
                     [ 3.49686242E+00,  1.83973160E-04, -9.97634499E-07,
                       1.56942783E-09, -6.10128175E-13,  3.41673934E+03,
                       1.48093120E+00]),
                NASA([984.14, 3000.00],
                     [ 3.45221464E+00, -2.95124034E-04,  7.39418622E-07,
                      -2.89309866E-10,  3.53041498E-14,  3.45751599E+03,
                       1.85813897E+00])))

species(name='bQOOH[O]',
        atoms='C:4 H:9 O:3',
        thermo=(NASA([10.00, 338.69],
                     [ 3.60915854E+00,  3.39069566E-02,  2.22227265E-04,
                      -8.23527342E-07,  8.56246333E-10, -2.29427112E+04,
                       1.23284605E+01]),
                NASA([338.69, 3000.00],
                     [ 5.03198881E+00,  5.46235886E-02, -3.56935806E-05,
                       1.12371751E-08, -1.35390171E-12, -2.32542939E+04,
                       3.82760723E+00])))

species(name='acetone',
        atoms='C:3 H:6 O:1',
        thermo=(NASA([10.00, 414.35],
                     [ 3.73496166E+00,  3.05743218E-02, -1.26253585E-04,
                       3.66080978E-07, -3.31430437E-10, -2.90277691E+04,
                       8.24936012E+00]),
                NASA([414.35, 3000.00],
                     [ 1.70010292E-01,  3.28431468E-02, -1.80960132E-05,
                       4.82960690E-09, -5.02388538E-13, -2.84563860E+04,
                       2.56372653E+01])))

species(name='H2O',
        atoms='H:2 O:1',
        thermo=(NASA([10.00, 773.84],
                     [ 4.00473541E+00, -2.39729134E-04,  8.11862955E-07,
                       1.47891862E-09, -1.19783539E-12, -3.03533807E+04,
                      -9.96254147E-02]),
                NASA([773.84, 3000.00],
                     [ 3.52133374E+00,  1.05377009E-03,  6.40722099E-07,
                      -3.86240235E-10,  5.49243294E-14, -3.02424794E+04,
                       2.34173094E+00])))

species(name='balkoxyketone',
        atoms='C:4 H:7 O:2',
        thermo=(NASA([10.00, 269.93],
                     [ 3.81931151E+00,  1.68519318E-02,  2.42742224E-04,
                      -9.64821161E-07,  1.18509335E-09, -2.25037545E+04,
                       1.20521854E+01]),
                NASA([269.93, 3000.00],
                     [ 3.57555944E+00,  4.28868089E-02, -2.65390705E-05,
                       7.99659117E-09, -9.32983470E-13, -2.25722826E+04,
                       1.13957990E+01])))

species(name='ibutenol',
        atoms='C:4 H:8 O:1',
        thermo=(NASA([10.00, 135.97],
                     [ 3.95714996E+00,  5.72646980E-03,  4.63611760E-04,
                      -3.04137514E-06,  6.85019471E-09, -2.48788879E+04,
                       8.21931848E+00]),
                NASA([135.97, 3000.00],
                     [ 3.32467612E+00,  3.69033556E-02, -1.89960416E-05,
                       4.73417677E-09, -4.59705291E-13, -2.48733092E+04,
                       9.58133237E+00])))

species(name='trisub_epoxy',
        atoms='C:4 H:8 O:2',
        thermo=(NASA([10.00, 209.19],
                     [ 3.75295042E+00,  2.37546930E-02,  1.26610110E-04,
                      -4.78364365E-07,  5.79468168E-10, -3.78268247E+04,
                       1.12739684E+01]),
                NASA([209.19, 3000.00],
                     [ 2.64185254E+00,  4.50006531E-02, -2.57361066E-05,
                       7.15266054E-09, -7.72980731E-13, -3.77803391E+04,
                       1.48960343E+01])))

species(name='bQOOHg',
        atoms='C:4 H:9 O:3',
        thermo=(NASA([10.00, 441.09],
                     [ 3.56595280E+00,  3.36073467E-02,  2.03462772E-04,
                      -5.98977617E-07,  4.83271168E-10, -2.28221906E+04,
                       1.33537891E+01]),
                NASA([441.09, 3000.00],
                     [ 6.09031192E+00,  5.80517622E-02, -4.06392697E-05,
                       1.32574026E-08, -1.62501077E-12, -2.35053760E+04,
                      -1.97849715E+00])))

species(name='CH2O',
        atoms='C:1 H:2 O:1',
        thermo=(NASA([10.00, 601.31],
                     [ 4.03190845E+00, -1.93233367E-03,  8.89743345E-06,
                       2.98105926E-09, -7.90813886E-12, -1.42276270E+04,
                       3.47574660E+00]),
                NASA([601.31, 3000.00],
                     [ 1.40134195E+00,  9.48858016E-03, -4.43088317E-06,
                       9.48452194E-10, -7.43790219E-14, -1.38013869E+04,
                       1.57423780E+01])))

species(name='galkene',
        atoms='C:4 H:8 O:1',
        thermo=(NASA([10.00, 383.47],
                     [ 3.84035604E+00,  1.20378740E-02,  1.87486319E-04,
                      -5.44759148E-07,  4.80711015E-10, -2.07091737E+04,
                       1.02570291E+01]),
                NASA([383.47, 3000.00],
                     [ 4.00413385E+00,  3.79025144E-02, -2.15435710E-05,
                       6.15213311E-09, -6.97446345E-13, -2.09244630E+04,
                       6.98052628E+00])))

species(name='O2',
        atoms='O:2',
        thermo=(NASA([10.00, 605.96],
                     [ 3.50743498E+00, -4.43860349E-04,  1.45938058E-06,
                       1.61509333E-09, -2.32050052E-12, -9.24756224E+02,
                       4.72183634E+00]),
                NASA([605.96, 3000.00],
                     [ 2.87462882E+00,  2.17840991E-03, -1.18262921E-06,
                       2.86910493E-10, -2.53297146E-14, -8.19517838E+02,
                       7.69331810E+00])))

species(name='bR',
        atoms='C:4 H:9 O:1',
        thermo=(NASA([10.00, 483.43],
                     [ 3.38164846E+00,  5.97142637E-02, -1.58320095E-04,
                       3.04908893E-07, -2.13091806E-10, -1.55126972E+04,
                       1.09226843E+01]),
                NASA([483.43, 3000.00],
                     [ 2.33428824E+00,  4.22094427E-02, -2.28029290E-05,
                       6.04614564E-09, -6.30240159E-13, -1.51056152E+04,
                       1.83772893E+01])))

species(name='bQOOHa',
        atoms='C:4 H:9 O:3',
        thermo=(NASA([10.00, 390.53],
                     [ 3.54969236E+00,  3.76592474E-02,  1.76622653E-04,
                      -5.98063750E-07,  5.45069236E-10, -2.80658976E+04,
                       1.31518761E+01]),
                NASA([390.53, 3000.00],
                     [ 5.33564209E+00,  5.64935715E-02, -3.83214298E-05,
                       1.22990604E-08, -1.49549987E-12, -2.84885076E+04,
                       2.59015836E+00])))

species(name='bRO2',
        atoms='C:4 H:9 O:3',
        thermo=(NASA([10.00, 461.39],
                     [ 3.53964713E+00,  3.88723795E-02,  9.57420148E-05,
                      -2.80380499E-07,  2.09647462E-10, -3.39754209E+04,
                       1.18803618E+01]),
                NASA([461.39, 3000.00],
                     [ 3.47201723E+00,  6.00510247E-02, -4.00567321E-05,
                       1.25663813E-08, -1.49496682E-12, -3.41883676E+04,
                       9.77903975E+00])))

species(name='disub_epoxy',
        atoms='C:4 H:8 O:2',
        thermo=(NASA([10.00, 549.41],
                     [ 3.89863211E+00,  5.97532637E-03,  1.66685676E-04,
                      -3.10743768E-07,  1.78330192E-10, -3.64095423E+04,
                       1.13847308E+01]),
                NASA([549.41, 3000.00],
                     [-6.40277648E-01,  6.05960003E-02, -4.13427220E-05,
                       1.31555461E-08, -1.57685017E-12, -3.62364254E+04,
                       2.76005436E+01])))

species(name='HO2',
        atoms='H:1 O:2',
        thermo=(NASA([10.00, 891.11],
                     [ 4.02887004E+00, -1.75769289E-03,  1.08726004E-05,
                      -1.13812972E-08,  3.90113097E-12,  4.95165001E+02,
                       4.69302008E+00]),
                NASA([891.11, 3000.00],
                     [ 3.06571044E+00,  4.28505005E-03, -2.19325920E-06,
                       5.58882699E-10, -5.61246669E-14,  5.98557610E+02,
                       8.84564156E+00])))

#-------------------------------------------------------------------------------
# Reaction data
#-------------------------------------------------------------------------------

# Reaction 1
chebyshev_reaction('bQOOHg (+ M) <=> bRO2 (+ M)',
                   Tmin=180.0, Tmax=1500.0,
                   Pmin=(0.01, 'atm'), Pmax=(98.692, 'atm'),
                   coeffs=[[ 2.19700e+00,  1.01300e+00, -4.02700e-03, -8.71000e-03, -3.12600e-03,  5.41000e-04,  2.99100e-04, -3.11800e-05],
                           [-2.02500e+00,  1.50000e+00,  5.12600e-02, -1.38000e-02, -4.28300e-03, -6.21000e-05,  4.27300e-04,  2.07000e-05],
                           [-2.60900e+00,  5.53300e-01,  7.74500e-02,  1.53800e-02, -2.93900e-03, -1.71200e-03, -1.87900e-05,  1.32100e-04],
                           [-1.50100e+00, -3.18100e-02,  1.64200e-02,  3.22400e-02,  3.02500e-03, -2.40000e-03, -5.53100e-04,  1.30600e-04],
                           [-7.74400e-01, -1.27900e-01, -3.40700e-02,  1.60500e-02,  6.65800e-03, -4.20000e-04, -6.98300e-04, -5.74700e-05],
                           [-3.30200e-01, -2.32600e-02, -2.02700e-02, -4.72300e-03,  2.41700e-03,  1.32400e-03, -5.10800e-05, -1.65100e-04],
                           [-1.71900e-01,  4.55900e-02,  1.67700e-02, -5.25900e-03, -2.68000e-03,  3.48800e-04,  4.11800e-04,  2.14300e-05],
                           [-1.03700e-01,  2.92800e-02,  3.06100e-02,  5.60800e-03, -1.56500e-03, -1.25300e-03, -5.57900e-05,  1.73300e-04],
                           [-9.28500e-02, -1.63800e-02,  1.55900e-02,  1.09000e-02,  2.77600e-03, -8.87600e-04, -6.51100e-04,  5.75200e-06],
                           [-6.95800e-02, -4.25600e-02, -5.34300e-03,  6.36900e-03,  4.45500e-03,  6.80800e-04, -4.76000e-04, -2.17500e-04]])

# Reaction 2
chebyshev_reaction('bQOOHa (+ M) <=> bRO2 (+ M)',
                   Tmin=180.0, Tmax=1500.0,
                   Pmin=(0.01, 'atm'), Pmax=(98.692, 'atm'),
                   coeffs=[[-6.62600e+00,  2.24700e+00, -1.37100e-01, -8.19700e-03, -2.20000e-02,  4.36000e-03,  3.31000e-03, -8.37300e-04],
                           [ 4.03500e+00,  1.88100e+00,  3.56100e-01, -1.04500e-01, -1.01800e-02,  2.56700e-03,  1.13000e-03,  3.02200e-04],
                           [-1.63700e+00, -1.34100e-01,  1.86000e-01,  8.54700e-02, -1.95000e-03, -9.96000e-03, -2.18000e-03,  1.10900e-03],
                           [-1.23600e+00, -5.89200e-01, -1.15200e-02,  9.08300e-02,  1.24500e-02, -7.47400e-03, -2.13600e-03,  5.67200e-04],
                           [-7.02800e-01, -2.31100e-01, -4.53700e-02,  1.38400e-02,  4.18700e-03,  1.21300e-03,  6.88100e-04, -7.51800e-05],
                           [-3.60900e-01,  5.88700e-02, -2.49100e-02, -1.75600e-02, -1.14300e-03,  2.28100e-03,  7.84900e-04, -1.29300e-04],
                           [-1.96500e-01,  8.83800e-02, -4.06200e-03, -7.67500e-03,  1.80600e-03, -1.11600e-04, -8.83900e-04, -9.28300e-05],
                           [-1.15300e-01,  3.12200e-02,  1.00800e-02,  6.08100e-03,  3.17300e-03, -1.12100e-03, -1.08500e-03, -4.16400e-05],
                           [-6.74900e-02, -1.93200e-02,  1.52400e-02,  8.56900e-03,  2.06400e-03, -1.61700e-04, -2.90700e-04, -6.49100e-05],
                           [-3.32600e-02, -4.04300e-02,  5.45900e-03,  4.66000e-03,  1.52600e-03,  9.93800e-04,  2.14800e-04, -1.85800e-04]])

# Reaction 3
chebyshev_reaction('bQOOH[O] (+ M) <=> bRO2 (+ M)',
                   Tmin=180.0, Tmax=1500.0,
                   Pmin=(0.01, 'atm'), Pmax=(98.692, 'atm'),
                   coeffs=[[ 5.27600e+00,  1.77000e+00, -1.08600e-01, -2.31800e-02, -5.27500e-04,  1.80500e-03,  6.09400e-04, -1.25300e-04],
                           [-5.02200e+00,  4.91300e-01,  1.59700e-01,  2.80700e-02, -2.79700e-03, -3.77500e-03, -1.00700e-03,  3.12800e-04],
                           [-2.82900e+00, -9.01100e-02, -4.24300e-02,  5.03800e-03,  8.63800e-03,  2.94500e-03, -1.73800e-04, -5.91400e-04],
                           [-1.27100e+00,  5.49500e-02, -1.09100e-02, -1.31800e-02, -4.95400e-03, -1.84400e-04,  7.39000e-04,  3.70300e-04],
                           [-5.58500e-01,  4.76100e-02,  2.08500e-02,  8.21000e-03,  6.49000e-04, -1.36100e-03, -8.86700e-04, -1.70600e-04],
                           [-3.32900e-01,  1.69100e-02,  9.77900e-03,  6.62800e-03,  4.39800e-03,  1.60400e-03, -4.06400e-05, -3.58800e-04],
                           [-2.31800e-01, -5.78200e-03,  5.97600e-03,  2.83700e-03,  9.69600e-04,  4.18100e-04,  2.18800e-04,  9.62700e-05],
                           [-1.29700e-01, -1.60000e-02,  2.29200e-03,  1.69100e-03,  6.42000e-04, -4.48600e-05, -2.17100e-04, -7.86300e-05],
                           [-5.19600e-02, -3.49200e-02, -7.91400e-05,  4.18600e-03,  1.92400e-03,  3.81000e-04, -1.46000e-04, -1.85600e-04],
                           [-6.02500e-02, -1.31000e-02,  2.11500e-03,  2.55700e-03,  1.35000e-03,  4.59900e-04,  2.70700e-05, -4.49400e-05]])

# Reaction 4
chebyshev_reaction('O2 + bR (+ M) <=> bRO2 (+ M)',
                   Tmin=180.0, Tmax=1500.0,
                   Pmin=(0.01, 'atm'), Pmax=(98.692, 'atm'),
                   coeffs=[[ 1.08500e+01,  3.64600e-01, -3.98300e-02,  2.82000e-04, -1.90600e-04,  3.03000e-05,  1.17500e-05,  3.92300e-06],
                           [-9.36800e-01,  6.68100e-01, -6.16700e-02, -2.31900e-03, -3.60300e-05,  6.25500e-06,  3.03800e-05,  5.55100e-06],
                           [-6.89400e-01,  5.15700e-01, -2.10800e-02, -7.08700e-03,  1.52200e-04,  7.28200e-06,  2.02800e-05,  4.08300e-06],
                           [-5.49900e-01,  3.35200e-01,  1.72300e-02, -8.09100e-03, -5.26900e-04,  8.86400e-05,  4.70100e-06, -2.76100e-07],
                           [-4.01500e-01,  1.79600e-01,  3.75600e-02, -4.20500e-03, -1.47300e-03,  5.18600e-05,  1.14300e-05, -7.74600e-06],
                           [-2.77000e-01,  7.14200e-02,  3.92500e-02,  1.55000e-03, -1.69900e-03, -1.74700e-04,  1.55000e-05, -9.50800e-06],
                           [-1.83600e-01,  8.09300e-03,  3.00300e-02,  5.83700e-03, -9.64500e-04, -4.18100e-04, -2.55100e-05, -4.41500e-06],
                           [-1.17300e-01, -2.30200e-02,  1.78600e-02,  7.36500e-03,  1.97600e-04, -4.78800e-04, -1.04000e-04, -3.40000e-06],
                           [-7.15400e-02, -3.44600e-02,  7.29000e-03,  6.66600e-03,  1.14000e-03, -3.27100e-04, -1.66900e-04, -1.38700e-05],
                           [-4.06300e-02, -3.49900e-02, -2.63900e-04,  4.86600e-03,  1.55700e-03, -8.02100e-05, -1.71200e-04, -2.91500e-05]])
#  bRO2(+M) <=> bQOOHg(+M)                             1.000e+00 0.000     0.000
#      TCHEB/ 180.000   1500.000 /
#      PCHEB/ 0.010     98.692   /
#      CHEB/ 10 8/
#      CHEB/ -1.192e+01   1.013e+00    -4.027e-03   -8.710e-03   -3.126e-03  /
#      CHEB/ 5.410e-04    2.991e-04    -3.118e-05   1.021e+01    1.500e+00   /
#      CHEB/ 5.126e-02    -1.380e-02   -4.283e-03   -6.210e-05   4.273e-04   /
#      CHEB/ 2.070e-05    -2.463e+00   5.533e-01    7.745e-02    1.538e-02   /
#      CHEB/ -2.939e-03   -1.712e-03   -1.879e-05   1.321e-04    -1.464e+00  /
#      CHEB/ -3.181e-02   1.642e-02    3.224e-02    3.025e-03    -2.400e-03  /
#      CHEB/ -5.531e-04   1.306e-04    -7.686e-01   -1.279e-01   -3.407e-02  /
#      CHEB/ 1.605e-02    6.658e-03    -4.200e-04   -6.983e-04   -5.747e-05  /
#      CHEB/ -3.304e-01   -2.326e-02   -2.027e-02   -4.723e-03   2.417e-03   /
#      CHEB/ 1.324e-03    -5.108e-05   -1.651e-04   -1.725e-01   4.559e-02   /
#      CHEB/ 1.677e-02    -5.259e-03   -2.680e-03   3.488e-04    4.118e-04   /
#      CHEB/ 2.143e-05    -1.042e-01   2.928e-02    3.061e-02    5.608e-03   /
#      CHEB/ -1.565e-03   -1.253e-03   -5.579e-05   1.733e-04    -9.317e-02  /
#      CHEB/ -1.638e-02   1.559e-02    1.090e-02    2.776e-03    -8.876e-04  /
#      CHEB/ -6.511e-04   5.752e-06    -6.977e-02   -4.256e-02   -5.343e-03  /
#      CHEB/ 6.369e-03    4.455e-03    6.808e-04    -4.760e-04   -2.175e-04  /

# Reaction 5
chebyshev_reaction('bQOOHa (+ M) <=> bQOOHg (+ M)',
                   Tmin=180.0, Tmax=1500.0,
                   Pmin=(0.01, 'atm'), Pmax=(98.692, 'atm'),
                   coeffs=[[-1.83400e+01,  2.66400e+00, -2.33800e-01, -1.21700e-01, -8.40900e-03,  1.14700e-02,  3.55000e-03, -1.69300e-03],
                           [ 5.88000e+00,  2.56400e+00,  6.47800e-01, -4.45600e-02, -4.65000e-02, -1.56600e-03,  1.19500e-03,  8.26000e-04],
                           [-2.73100e+00, -6.89000e-01,  1.73800e-01,  2.06500e-01,  1.05600e-02, -2.43300e-02, -3.44600e-03,  2.71300e-03],
                           [-1.72400e+00, -8.10900e-01, -9.35500e-02,  7.25700e-02,  1.89900e-02,  6.50600e-04, -1.65300e-04, -4.36700e-04],
                           [-7.35400e-01, -2.44800e-01, -1.39700e-01, -2.59800e-02,  8.41000e-03,  6.53200e-03,  7.16600e-04, -6.07900e-04],
                           [-2.46800e-01,  6.59900e-02, -6.12600e-02, -3.19000e-02, -2.62900e-03,  6.54700e-04, -2.12700e-04,  2.97200e-04],
                           [-8.19300e-02,  1.59800e-01,  2.01500e-02, -6.47000e-03, -6.07800e-03, -3.85000e-03, -3.46900e-04,  6.01200e-04],
                           [-4.86100e-02,  9.18200e-02,  5.33200e-02,  1.50400e-02, -1.57600e-03, -3.09000e-03, -9.30600e-04, -1.40500e-05],
                           [-6.36400e-02,  1.92700e-03,  3.29900e-02,  1.97600e-02,  5.64400e-03, -4.66600e-04, -1.22100e-03, -4.26700e-04],
                           [-5.56500e-02, -4.80800e-02,  7.88400e-04,  1.01900e-02,  7.28100e-03,  1.95500e-03, -4.67600e-04, -4.43900e-04]])

# Reaction 6
chebyshev_reaction('bQOOH[O] (+ M) <=> bQOOHg (+ M)',
                   Tmin=180.0, Tmax=1500.0,
                   Pmin=(0.01, 'atm'), Pmax=(98.692, 'atm'),
                   coeffs=[[-7.36800e+00,  1.75800e+00, -1.00100e-02, -1.19600e-01, -1.87200e-02,  8.17200e-03,  1.22000e-03,  2.49400e-05],
                           [-2.92000e+00,  1.29400e+00,  3.15200e-01,  1.34500e-01, -2.12200e-02, -2.33700e-02, -2.00700e-04,  2.11700e-03],
                           [-3.30200e+00, -4.63500e-02, -1.47800e-01,  2.44200e-02,  4.20500e-02,  1.11400e-02, -3.86000e-03, -3.08500e-03],
                           [-1.71100e+00, -1.97700e-01, -1.12700e-01, -2.27600e-02,  1.15400e-03,  6.69400e-03,  3.77000e-03,  3.15000e-04],
                           [-7.02100e-01, -6.30100e-02, -3.50100e-02, -8.19100e-03, -6.62300e-03, -2.32900e-03,  1.14000e-03,  1.24000e-03],
                           [-2.69200e-01,  4.28200e-02,  7.67100e-03, -2.95600e-03, -3.27100e-03, -2.36000e-03, -5.90100e-04,  4.93100e-04],
                           [-1.60200e-01,  8.58000e-02,  3.92600e-02,  1.67900e-03, -3.58900e-03, -1.93500e-03, -1.01600e-03, -1.88500e-04],
                           [-9.03400e-02,  3.58600e-02,  3.90200e-02,  1.27400e-02,  7.54000e-04, -1.69900e-03, -1.07000e-03, -4.32800e-04],
                           [-5.89800e-02, -2.35100e-02,  1.63200e-02,  1.54300e-02,  5.98100e-03,  4.38700e-04, -5.90800e-04, -4.55200e-04],
                           [-8.05100e-02, -2.63400e-02, -3.19000e-03,  6.73100e-03,  5.75400e-03,  1.85800e-03,  7.47200e-05, -1.73200e-04]])

# Reaction 7
chebyshev_reaction('O2 + bR (+ M) <=> bQOOHg (+ M)',
                   Tmin=180.0, Tmax=1500.0,
                   Pmin=(0.01, 'atm'), Pmax=(98.692, 'atm'),
                   coeffs=[[ 1.17800e+00,  6.49400e-01, -3.13400e-01, -7.26000e-02,  3.59900e-02,  4.41500e-04, -5.34300e-03,  1.52900e-03],
                           [-1.30700e+00,  1.46900e+00,  3.51500e-01, -3.56400e-02, -6.33400e-02,  1.13700e-02,  8.22400e-03, -3.35600e-03],
                           [-1.43100e+00,  1.63600e-01,  1.19700e-01,  9.59900e-02, -1.17300e-02, -1.72800e-02,  1.86800e-03,  2.69800e-03],
                           [-9.69600e-01, -1.39200e-01, -6.24800e-02,  4.97100e-02,  2.50100e-02, -5.12200e-03, -4.79200e-03,  5.51100e-04],
                           [-4.53000e-01, -4.79300e-02, -8.35100e-02, -1.47900e-02,  1.73700e-02,  6.47600e-03, -1.85200e-03, -1.30000e-03],
                           [-1.55400e-01,  6.98200e-02, -2.19700e-02, -3.32200e-02, -1.77800e-03,  5.96100e-03,  1.59700e-03, -6.63600e-04],
                           [-4.68900e-02,  9.41100e-02,  3.38700e-02, -1.53200e-02, -1.03000e-02,  2.39700e-04,  1.91600e-03,  3.60400e-04],
                           [-3.72500e-02,  5.14400e-02,  4.81300e-02,  6.28800e-03, -6.66000e-03, -2.96300e-03,  3.63700e-04,  5.57800e-04],
                           [-4.36100e-02, -5.94000e-03,  3.02500e-02,  1.49600e-02,  1.98300e-04, -2.44100e-03, -7.06500e-04,  1.98000e-04],
                           [-3.70100e-02, -3.69900e-02,  5.82000e-03,  1.08300e-02,  3.49900e-03, -4.42200e-04, -6.68700e-04, -1.16600e-04]])
#  bRO2(+M) <=> bQOOHa(+M)                             1.000e+00 0.000     0.000
#      TCHEB/ 180.000   1500.000 /
#      PCHEB/ 0.010     98.692   /
#      CHEB/ 10 8/
#      CHEB/ -1.376e+01   2.247e+00    -1.371e-01   -8.197e-03   -2.200e-02  /
#      CHEB/ 4.360e-03    3.310e-03    -8.373e-04   1.055e+01    1.881e+00   /
#      CHEB/ 3.561e-01    -1.045e-01   -1.018e-02   2.567e-03    1.130e-03   /
#      CHEB/ 3.022e-04    -1.582e+00   -1.341e-01   1.860e-01    8.547e-02   /
#      CHEB/ -1.950e-03   -9.960e-03   -2.180e-03   1.109e-03    -1.235e+00  /
#      CHEB/ -5.892e-01   -1.152e-02   9.083e-02    1.245e-02    -7.474e-03  /
#      CHEB/ -2.136e-03   5.672e-04    -7.076e-01   -2.311e-01   -4.537e-02  /
#      CHEB/ 1.384e-02    4.187e-03    1.213e-03    6.881e-04    -7.518e-05  /
#      CHEB/ -3.637e-01   5.887e-02    -2.491e-02   -1.756e-02   -1.143e-03  /
#      CHEB/ 2.281e-03    7.849e-04    -1.293e-04   -1.979e-01   8.838e-02   /
#      CHEB/ -4.062e-03   -7.675e-03   1.806e-03    -1.116e-04   -8.839e-04  /
#      CHEB/ -9.283e-05   -1.160e-01   3.122e-02    1.008e-02    6.081e-03   /
#      CHEB/ 3.173e-03    -1.121e-03   -1.085e-03   -4.164e-05   -6.784e-02  /
#      CHEB/ -1.932e-02   1.524e-02    8.569e-03    2.064e-03    -1.617e-04  /
#      CHEB/ -2.907e-04   -6.491e-05   -3.338e-02   -4.043e-02   5.459e-03   /
#      CHEB/ 4.660e-03    1.526e-03    9.938e-04    2.148e-04    -1.858e-04  /
#  bQOOHg(+M) <=> bQOOHa(+M)                           1.000e+00 0.000     0.000
#      TCHEB/ 180.000   1500.000 /
#      PCHEB/ 0.010     98.692   /
#      CHEB/ 10 8/
#      CHEB/ -1.136e+01   2.664e+00    -2.338e-01   -1.217e-01   -8.409e-03  /
#      CHEB/ 1.147e-02    3.550e-03    -1.693e-03   1.655e-01    2.564e+00   /
#      CHEB/ 6.478e-01    -4.456e-02   -4.650e-02   -1.566e-03   1.195e-03   /
#      CHEB/ 8.260e-04    -2.822e+00   -6.890e-01   1.738e-01    2.065e-01   /
#      CHEB/ 1.056e-02    -2.433e-02   -3.446e-03   2.713e-03    -1.760e+00  /
#      CHEB/ -8.109e-01   -9.355e-02   7.257e-02    1.899e-02    6.506e-04   /
#      CHEB/ -1.653e-04   -4.367e-04   -7.460e-01   -2.448e-01   -1.397e-01  /
#      CHEB/ -2.598e-02   8.410e-03    6.532e-03    7.166e-04    -6.079e-04  /
#      CHEB/ -2.494e-01   6.599e-02    -6.126e-02   -3.190e-02   -2.629e-03  /
#      CHEB/ 6.547e-04    -2.127e-04   2.972e-04    -8.270e-02   1.598e-01   /
#      CHEB/ 2.015e-02    -6.470e-03   -6.078e-03   -3.850e-03   -3.469e-04  /
#      CHEB/ 6.012e-04    -4.888e-02   9.182e-02    5.332e-02    1.504e-02   /
#      CHEB/ -1.576e-03   -3.090e-03   -9.306e-04   -1.405e-05   -6.367e-02  /
#      CHEB/ 1.927e-03    3.299e-02    1.976e-02    5.644e-03    -4.666e-04  /
#      CHEB/ -1.221e-03   -4.267e-04   -5.559e-02   -4.808e-02   7.884e-04   /
#      CHEB/ 1.019e-02    7.281e-03    1.955e-03    -4.676e-04   -4.439e-04  /

# Reaction 8
chebyshev_reaction('bQOOH[O] (+ M) <=> bQOOHa (+ M)',
                   Tmin=180.0, Tmax=1500.0,
                   Pmin=(0.01, 'atm'), Pmax=(98.692, 'atm'),
                   coeffs=[[-9.33600e+00,  3.10400e+00, -6.55900e-02, -1.14000e-01, -5.96700e-02,  4.88400e-03,  8.69700e-03,  1.78300e-03],
                           [-2.34200e+00,  1.66800e+00,  5.33300e-01,  3.10200e-02, -3.61300e-05, -1.41300e-02, -4.97200e-03,  3.08300e-04],
                           [-2.60700e+00, -1.01800e+00, -7.11000e-02,  1.03000e-01,  4.69200e-02,  7.84300e-03, -5.19600e-03, -3.87000e-03],
                           [-1.40600e+00, -6.06800e-01, -9.87100e-02,  2.55400e-02, -2.43000e-03, -1.37200e-03,  3.28300e-03,  2.03400e-03],
                           [-6.16300e-01, -8.52200e-02, -2.77300e-02, -2.49100e-03, -1.06200e-02, -5.22400e-03,  1.44500e-03,  2.00400e-03],
                           [-3.23300e-01,  9.88600e-02, -1.20800e-02, -9.33200e-03,  5.37900e-04,  2.17100e-04, -6.78700e-04, -5.29200e-04],
                           [-1.99600e-01,  9.59400e-02,  1.24600e-02,  3.42100e-06,  3.00700e-03, -4.78300e-04, -1.71400e-03, -6.14300e-04],
                           [-9.11700e-02,  4.01200e-02,  2.20500e-02,  8.62000e-03,  3.32100e-03, -7.79700e-04, -1.28700e-03, -2.84600e-04],
                           [-3.23700e-02, -2.67500e-02,  1.59900e-02,  1.09600e-02,  4.00700e-03,  7.69900e-04, -1.24200e-04, -1.77200e-04],
                           [-5.20200e-02, -2.84400e-02,  6.16600e-03,  5.12600e-03,  2.65200e-03,  1.59600e-03,  4.82300e-04, -1.20200e-04]])

# Reaction 9
chebyshev_reaction('O2 + bR (+ M) <=> bQOOHa (+ M)',
                   Tmin=180.0, Tmax=1500.0,
                   Pmin=(0.01, 'atm'), Pmax=(98.692, 'atm'),
                   coeffs=[[-1.32000e+00,  3.15800e+00, -3.31700e-01, -2.98200e-01,  2.33100e-02,  4.30800e-02, -5.35000e-03, -6.70200e-03],
                           [-2.48400e-01,  1.39300e-03,  6.88000e-01,  2.23200e-01, -9.40300e-02, -5.01700e-02,  1.54600e-02,  8.91300e-03],
                           [-8.48700e-01, -3.94600e-01,  3.88800e-02,  1.17300e-01,  3.24600e-02, -7.21100e-03, -9.55300e-03, -4.18200e-04],
                           [-7.01700e-01, -1.54400e-01, -1.28700e-01,  7.41100e-03,  2.38000e-02,  6.94900e-03, -8.43100e-04, -1.41300e-03],
                           [-3.94400e-01,  3.00800e-02, -7.19600e-02, -2.93800e-02,  3.41000e-04,  3.40400e-03,  2.06400e-03,  2.91000e-04],
                           [-1.75700e-01,  9.07400e-02,  6.56000e-03, -2.02500e-02, -8.49000e-03, -1.14200e-03,  7.11400e-04,  6.85800e-04],
                           [-7.72300e-02,  7.77400e-02,  4.40800e-02,  1.67700e-04, -6.38700e-03, -2.89600e-03, -5.57200e-04,  2.96300e-04],
                           [-4.47500e-02,  3.55400e-02,  4.35300e-02,  1.35300e-02, -9.49600e-04, -2.27500e-03, -9.67500e-04, -1.10500e-04],
                           [-4.29400e-02, -8.44200e-03,  2.39300e-02,  1.56500e-02,  3.61800e-03, -7.74000e-04, -8.74300e-04, -2.65400e-04],
                           [-3.49300e-02, -3.32100e-02,  4.58900e-03,  9.88300e-03,  4.51400e-03,  6.67500e-04, -3.35700e-04, -2.82500e-04]])
#  bRO2(+M) <=> bQOOH[O](+M)                           1.000e+00 0.000     0.000
#      TCHEB/ 180.000   1500.000 /
#      PCHEB/ 0.010     98.692   /
#      CHEB/ 10 8/
#      CHEB/ -9.192e+00   1.770e+00    -1.086e-01   -2.318e-02   -5.275e-04  /
#      CHEB/ 1.805e-03    6.094e-04    -1.253e-04   6.813e+00    4.913e-01   /
#      CHEB/ 1.597e-01    2.807e-02    -2.797e-03   -3.775e-03   -1.007e-03  /
#      CHEB/ 3.128e-04    -2.835e+00   -9.011e-02   -4.243e-02   5.038e-03   /
#      CHEB/ 8.638e-03    2.945e-03    -1.738e-04   -5.914e-04   -1.292e+00  /
#      CHEB/ 5.495e-02    -1.091e-02   -1.318e-02   -4.954e-03   -1.844e-04  /
#      CHEB/ 7.390e-04    3.703e-04    -5.692e-01   4.761e-02    2.085e-02   /
#      CHEB/ 8.210e-03    6.490e-04    -1.361e-03   -8.867e-04   -1.706e-04  /
#      CHEB/ -3.368e-01   1.691e-02    9.779e-03    6.628e-03    4.398e-03   /
#      CHEB/ 1.604e-03    -4.064e-05   -3.588e-04   -2.333e-01   -5.782e-03  /
#      CHEB/ 5.976e-03    2.837e-03    9.696e-04    4.181e-04    2.188e-04   /
#      CHEB/ 9.627e-05    -1.303e-01   -1.600e-02   2.292e-03    1.691e-03   /
#      CHEB/ 6.420e-04    -4.486e-05   -2.171e-04   -7.863e-05   -5.214e-02  /
#      CHEB/ -3.492e-02   -7.914e-05   4.186e-03    1.924e-03    3.810e-04   /
#      CHEB/ -1.460e-04   -1.856e-04   -6.024e-02   -1.310e-02   2.115e-03   /
#      CHEB/ 2.557e-03    1.350e-03    4.599e-04    2.707e-05    -4.494e-05  /
#  bQOOHg(+M) <=> bQOOH[O](+M)                         1.000e+00 0.000     0.000
#      TCHEB/ 180.000   1500.000 /
#      PCHEB/ 0.010     98.692   /
#      CHEB/ 10 8/
#      CHEB/ -7.720e+00   1.758e+00    -1.001e-02   -1.196e-01   -1.872e-02  /
#      CHEB/ 8.172e-03    1.220e-03    2.494e-05    -3.319e+00   1.294e+00   /
#      CHEB/ 3.152e-01    1.345e-01    -2.122e-02   -2.337e-02   -2.007e-04  /
#      CHEB/ 2.117e-03    -3.454e+00   -4.635e-02   -1.478e-01   2.442e-02   /
#      CHEB/ 4.205e-02    1.114e-02    -3.860e-03   -3.085e-03   -1.770e+00  /