units(length='cm', time='s', quantity='mol', act_energy='kcal/mol')

ideal_gas(name='gas',
          elements="H D T C Ci O Oi N Ne Ar He Si S F Cl Br I X",
          species="""OH             bQOOH[O]       acetone
                     H2O            balkoxyketone  ibutenol
                     trisub_epoxy   bQOOHg         CH2O
                     galkene        O2             bR
                     bQOOHa         bRO2           disub_epoxy
                     HO2""",
          reactions='all',
          initial_state=state(temperature=300.0, pressure=OneAtm))

#-------------------------------------------------------------------------------
# Element data
#-------------------------------------------------------------------------------

element(symbol='Ci', atomic_mass=13.003)
element(symbol='D', atomic_mass=2.014)
element(symbol='Oi', atomic_mass=18.0)
element(symbol='T', atomic_mass=3.016)
element(symbol='X', atomic_mass=195.083)
#-------------------------------------------------------------------------------
# Species data
#-------------------------------------------------------------------------------

species(name='OH',
        atoms='H:1 O:1',
        thermo=(NASA([10.00, 984.14],
                     [ 3.49686242E+00,  1.83973160E-04, -9.97634499E-07,
                       1.56942783E-09, -6.10128175E-13,  3.41673934E+03,
                       1.48093120E+00]),
                NASA([984.14, 3000.00],
                     [ 3.45221464E+00, -2.95124034E-04,  7.39418622E-07,
                      -2.89309866E-10,  3.53041498E-14,  3.45751599E+03,
                       1.85813897E+00])))

species(name='bQOOH[O]',
        atoms='C:4 H:9 O:3',
        thermo=(NASA([10.00, 338.69],
                     [ 3.60915854E+00,  3.39069566E-02,  2.22227265E-04,
                      -8.23527342E-07,  8.56246333E-10, -2.44314920E+04,
                       1.23284605E+01]),
                NASA([338.69, 3000.00],
                     [ 5.03198881E+00,  5.46235886E-02, -3.56935806E-05,
                       1.12371751E-08, -1.35390171E-12, -2.47430747E+04,
                       3.82760723E+00])))

species(name='acetone',
        atoms='C:3 H:6 O:1',
        thermo=(NASA([10.00, 414.35],
                     [ 3.73496166E+00,  3.05743218E-02, -1.26253585E-04,
                       3.66080978E-07, -3.31430437E-10, -2.77525559E+04,
                       8.24936012E+00]),
                NASA([414.35, 3000.00],
                     [ 1.70010292E-01,  3.28431468E-02, -1.80960132E-05,
                       4.82960690E-09, -5.02388538E-13, -2.71811728E+04,
                       2.56372653E+01])))

species(name='H2O',
        atoms='H:2 O:1',
        thermo=(NASA([10.00, 773.84],
                     [ 4.00473541E+00, -2.39729134E-04,  8.11862955E-07,
                       1.47891862E-09, -1.19783539E-12, -3.03533807E+04,
                      -9.96254147E-02]),
                NASA([773.84, 3000.00],
                     [ 3.52133374E+00,  1.05377009E-03,  6.40722099E-07,
                      -3.86240235E-10,  5.49243294E-14, -3.02424794E+04,
                       2.34173094E+00])))

species(name='balkoxyketone',
        atoms='C:4 H:7 O:2',
        thermo=(NASA([10.00, 269.93],
                     [ 3.81931151E+00,  1.68519318E-02,  2.42742224E-04,
                      -9.64821161E-07,  1.18509335E-09, -1.99383756E+04,
                       1.20521854E+01]),
                NASA([269.93, 3000.00],
                     [ 3.57555944E+00,  4.28868089E-02, -2.65390705E-05,
                       7.99659117E-09, -9.32983470E-13, -2.00069037E+04,
                       1.13957990E+01])))

species(name='ibutenol',
        atoms='C:4 H:8 O:1',
        thermo=(NASA([10.00, 135.97],
                     [ 3.95714996E+00,  5.72646980E-03,  4.63611760E-04,
                      -3.04137514E-06,  6.85019471E-09, -2.20024082E+04,
                       8.21931848E+00]),
                NASA([135.97, 3000.00],
                     [ 3.32467612E+00,  3.69033556E-02, -1.89960416E-05,
                       4.73417677E-09, -4.59705291E-13, -2.19968296E+04,
                       9.58133237E+00])))

species(name='trisub_epoxy',
        atoms='C:4 H:8 O:2',
        thermo=(NASA([10.00, 209.19],
                     [ 3.75295042E+00,  2.37546930E-02,  1.26610110E-04,
                      -4.78364365E-07,  5.79468168E-10, -3.80969350E+04,
                       1.12739684E+01]),
                NASA([209.19, 3000.00],
                     [ 2.64185254E+00,  4.50006531E-02, -2.57361066E-05,
                       7.15266054E-09, -7.72980731E-13, -3.80504494E+04,
                       1.48960343E+01])))

species(name='bQOOHg',
        atoms='C:4 H:9 O:3',
        thermo=(NASA([10.00, 441.09],
                     [ 3.56595280E+00,  3.36073467E-02,  2.03462772E-04,
                      -5.98977617E-07,  4.83271168E-10, -2.24427908E+04,
                       1.33537891E+01]),
                NASA([441.09, 3000.00],
                     [ 6.09031192E+00,  5.80517622E-02, -4.06392697E-05,
                       1.32574026E-08, -1.62501077E-12, -2.31259763E+04,
                      -1.97849715E+00])))

species(name='CH2O',
        atoms='C:1 H:2 O:1',
        thermo=(NASA([10.00, 601.31],
                     [ 4.03190845E+00, -1.93233367E-03,  8.89743345E-06,
                       2.98105926E-09, -7.90813886E-12, -1.42276270E+04,
                       3.47574660E+00]),
                NASA([601.31, 3000.00],
                     [ 1.40134195E+00,  9.48858016E-03, -4.43088317E-06,
                       9.48452194E-10, -7.43790219E-14, -1.38013869E+04,
                       1.57423780E+01])))

species(name='galkene',
        atoms='C:4 H:8 O:1',
        thermo=(NASA([10.00, 383.47],
                     [ 3.84035604E+00,  1.20378740E-02,  1.87486319E-04,
                      -5.44759148E-07,  4.80711015E-10, -2.04757260E+04,
                       1.02570291E+01]),
                NASA([383.47, 3000.00],
                     [ 4.00413385E+00,  3.79025144E-02, -2.15435710E-05,
                       6.15213311E-09, -6.97446345E-13, -2.06910154E+04,
                       6.98052628E+00])))

species(name='O2',
        atoms='O:2',
        thermo=(NASA([10.00, 605.96],
                     [ 3.50743498E+00, -4.43860349E-04,  1.45938058E-06,
                       1.61509333E-09, -2.32050052E-12, -9.24756224E+02,
                       4.72183634E+00]),
                NASA([605.96, 3000.00],
                     [ 2.87462882E+00,  2.17840991E-03, -1.18262921E-06,
                       2.86910493E-10, -2.53297146E-14, -8.19517838E+02,
                       7.69331810E+00])))

species(name='bR',
        atoms='C:4 H:9 O:1',
        thermo=(NASA([10.00, 483.43],
                     [ 3.38164846E+00,  5.97142637E-02, -1.58320095E-04,
                       3.04908893E-07, -2.13091806E-10, -1.41075420E+04,
                       1.09226843E+01]),
                NASA([483.43, 3000.00],
                     [ 2.33428824E+00,  4.22094427E-02, -2.28029290E-05,
                       6.04614564E-09, -6.30240159E-13, -1.37004601E+04,
                       1.83772893E+01])))

species(name='bQOOHa',
        atoms='C:4 H:9 O:3',
        thermo=(NASA([10.00, 390.53],
                     [ 3.54969236E+00,  3.76592474E-02,  1.76622653E-04,
                      -5.98063750E-07,  5.45069236E-10, -2.55772531E+04,
                       1.31518761E+01]),
                NASA([390.53, 3000.00],
                     [ 5.33564209E+00,  5.64935715E-02, -3.83214298E-05,
                       1.22990604E-08, -1.49549987E-12, -2.59998631E+04,
                       2.59015836E+00])))

species(name='bRO2',
        atoms='C:4 H:9 O:3',
        thermo=(NASA([10.00, 461.39],
                     [ 3.53964713E+00,  3.88723795E-02,  9.57420148E-05,
                      -2.80380499E-07,  2.09647462E-10, -3.34748474E+04,
                       1.18803618E+01]),
                NASA([461.39, 3000.00],
                     [ 3.47201723E+00,  6.00510247E-02, -4.00567321E-05,
                       1.25663813E-08, -1.49496682E-12, -3.36877941E+04,
                       9.77903975E+00])))

species(name='disub_epoxy',
        atoms='C:4 H:8 O:2',
        thermo=(NASA([10.00, 549.41],
                     [ 3.89863211E+00,  5.97532637E-03,  1.66685676E-04,
                      -3.10743768E-07,  1.78330192E-10, -3.64719800E+04,
                       1.13847308E+01]),
                NASA([549.41, 3000.00],
                     [-6.40277648E-01,  6.05960003E-02, -4.13427220E-05,
                       1.31555461E-08, -1.57685017E-12, -3.62988631E+04,
                       2.76005436E+01])))

species(name='HO2',
        atoms='H:1 O:2',
        thermo=(NASA([10.00, 891.11],
                     [ 4.02887004E+00, -1.75769289E-03,  1.08726004E-05,
                      -1.13812972E-08,  3.90113097E-12,  4.95165001E+02,
                       4.69302008E+00]),
                NASA([891.11, 3000.00],
                     [ 3.06571044E+00,  4.28505005E-03, -2.19325920E-06,
                       5.58882699E-10, -5.61246669E-14,  5.98557610E+02,
                       8.84564156E+00])))

#-------------------------------------------------------------------------------
# Reaction data
#-------------------------------------------------------------------------------

# Reaction 1
chebyshev_reaction('bQOOHg (+ M) <=> bRO2 (+ M)',
                   Tmin=180.0, Tmax=1500.0,
                   Pmin=(0.01, 'atm'), Pmax=(98.692, 'atm'),
                   coeffs=[[ 3.11300e+00,  8.93000e-01, -3.86500e-02,  2.19200e-02, -5.71500e-03,  4.00800e-04,  2.07600e-04, -4.74600e-05],
                           [-4.94800e+00,  1.05300e+00,  8.89800e-02, -1.28400e-02,  4.59800e-03, -1.04600e-03, -6.59600e-05,  1.81000e-04],
                           [-3.43400e+00,  1.14200e-01,  1.06900e-01, -3.19300e-03, -6.58600e-05,  1.76600e-03, -6.10000e-04, -1.19300e-04],
                           [-1.59200e+00, -1.52100e-01, -3.21900e-02,  2.12400e-02,  1.46700e-03, -8.06700e-04,  3.02400e-04, -2.21100e-04],
                           [-5.99200e-01,  9.46600e-03, -6.99100e-02,  2.47000e-03,  7.06500e-03, -1.71900e-03, -1.27800e-04,  3.60400e-04],
                           [-2.83500e-01,  1.09100e-01,  4.57000e-03, -8.66600e-03, -6.61200e-04,  1.08900e-03, -1.13300e-04,  9.67000e-05],
                           [-2.29000e-01,  2.56200e-02,  4.90000e-02,  6.51600e-03, -5.74400e-03,  7.56600e-04,  5.97500e-04, -3.61400e-04],
                           [-1.77600e-01, -6.56700e-02,  1.00100e-02,  1.61600e-02,  1.78600e-03, -1.29200e-03, -1.25500e-04, -1.92300e-06],
                           [-8.27400e-02, -7.01500e-02, -3.07200e-02,  3.62800e-03,  7.16800e-03, -4.74200e-04, -8.85800e-04,  2.90100e-04],
                           [-1.58100e-02, -2.70800e-02, -2.07200e-02, -8.24700e-03,  6.02500e-04,  1.54600e-03,  2.03800e-04, -9.19100e-05]])

# Reaction 2
chebyshev_reaction('bQOOHa (+ M) <=> bRO2 (+ M)',
                   Tmin=180.0, Tmax=1500.0,
                   Pmin=(0.01, 'atm'), Pmax=(98.692, 'atm'),
                   coeffs=[[-4.36800e+00,  3.90200e+00, -4.41100e-01, -1.41500e-01,  7.21400e-02,  1.77800e-02, -1.21800e-02, -2.36500e-03],
                           [-1.16600e+00, -1.15700e+00,  7.16800e-01,  1.62300e-01, -6.87300e-02, -8.67900e-03,  1.18700e-02, -8.74900e-04],
                           [-2.59200e+00, -2.69500e-01, -7.41400e-05,  6.48800e-02,  1.09100e-02, -7.65600e-03, -6.85200e-04,  1.74500e-03],
                           [-1.13800e+00, -1.91600e-02, -3.21900e-02,  9.66700e-04,  3.60000e-04, -3.27700e-03, -7.12600e-04,  8.94900e-04],
                           [-6.21100e-01,  1.21800e-01,  8.80000e-04, -1.26900e-02, -2.46700e-03,  9.62400e-04, -5.01800e-04, -4.44900e-04],
                           [-2.53400e-01, -4.12800e-03, -3.98400e-03,  1.39000e-03,  1.91400e-03,  4.48500e-04,  3.01300e-06, -4.10700e-05],
                           [-8.04300e-02, -8.27100e-02, -1.28100e-02,  4.37100e-03,  2.63300e-03, -3.57400e-04,  2.46000e-04,  3.87600e-04],
                           [-1.39200e-01,  1.35700e-02, -1.25200e-02, -6.64600e-03,  9.87100e-05,  1.74400e-03,  2.36700e-04, -2.07000e-04],
                           [-7.73100e-02, -4.66900e-03, -3.37100e-03, -4.06800e-03, -1.68900e-04,  1.02100e-03,  2.59000e-04, -1.82100e-04],
                           [ 2.28300e-03, -4.35100e-02, -8.37000e-03,  2.74700e-03,  9.60900e-04, -2.43100e-04,  8.52300e-05,  1.45900e-04]])

# Reaction 3
chebyshev_reaction('bQOOH[O] (+ M) <=> bRO2 (+ M)',
                   Tmin=180.0, Tmax=1500.0,
                   Pmin=(0.01, 'atm'), Pmax=(98.692, 'atm'),
                   coeffs=[[ 4.74800e+00,  7.62700e-01, -7.87700e-02,  1.53200e-02,  1.27800e-03, -5.21500e-04, -8.33600e-05,  2.71400e-05],
                           [-9.17700e-01,  1.07100e+00, -2.96900e-02,  1.85600e-03,  5.97700e-03, -9.11100e-04, -2.88100e-04,  8.97900e-05],
                           [-2.78700e+00,  3.31200e-01,  8.64700e-02, -1.49800e-03, -4.78500e-04,  6.86700e-04, -1.28500e-04, -3.58500e-05],
                           [-1.68900e+00, -9.44600e-02,  5.80200e-02,  1.83900e-02, -3.24100e-03, -5.18000e-04,  4.37900e-04, -1.44100e-05],
                           [-8.62300e-01, -1.58500e-01, -1.46300e-02,  1.83300e-02,  2.20400e-03, -1.47100e-03,  9.50800e-05,  1.79500e-04],
                           [-3.82300e-01, -6.39400e-02, -3.91800e-02,  4.45700e-04,  4.92100e-03,  1.25700e-04, -4.10300e-04,  7.75900e-05],
                           [-1.61200e-01,  2.22000e-02, -1.65500e-02, -1.01400e-02,  1.22000e-03,  1.50400e-03, -8.20000e-05, -1.61200e-04],
                           [-8.67200e-02,  4.06900e-02,  1.20700e-02, -5.03100e-03, -2.70500e-03,  6.53600e-04,  4.23900e-04, -1.21900e-04],
                           [-6.20000e-02,  8.86000e-03,  2.01100e-02,  5.15300e-03, -1.96100e-03, -9.56700e-04,  2.32700e-04,  9.82500e-05],
                           [-4.91100e-02, -2.81100e-02,  7.14000e-03,  9.08600e-03,  1.61900e-03, -1.17600e-03, -3.64600e-04,  1.46000e-04]])

# Reaction 4
chebyshev_reaction('O2 + bR (+ M) <=> bRO2 (+ M)',
                   Tmin=180.0, Tmax=1500.0,
                   Pmin=(0.01, 'atm'), Pmax=(98.692, 'atm'),
                   coeffs=[[ 1.16300e+01,  4.22200e-01, -4.16300e-02,  1.66400e-03, -4.79800e-04,  5.60900e-05, -1.33100e-05,  2.89400e-06],
                           [-1.19600e+00,  7.54100e-01, -5.85700e-02, -8.61400e-04, -2.80400e-04, -1.72900e-05, -3.10200e-06,  2.87700e-06],
                           [-8.79400e-01,  5.40000e-01, -8.27400e-03, -6.49000e-03,  8.33700e-05, -3.03100e-05, -5.05800e-06,  3.49000e-06],
                           [-6.66000e-01,  3.07800e-01,  3.02700e-02, -6.01700e-03, -6.75200e-04,  5.69100e-05, -3.36700e-06,  1.08500e-06],
                           [-4.60900e-01,  1.30500e-01,  4.14300e-02, -5.00200e-04, -1.32100e-03, -2.95400e-05,  2.46900e-05, -1.78400e-06],
                           [-3.01100e-01,  2.53900e-02,  3.26800e-02,  4.64700e-03, -8.66700e-04, -2.31300e-04,  2.52600e-05,  2.83200e-06],
                           [-1.88400e-01, -2.40200e-02,  1.77800e-02,  6.36200e-03,  2.54700e-04, -2.76600e-04, -2.34700e-05,  5.72400e-06],
                           [-1.12600e-01, -4.04400e-02,  5.31300e-03,  5.20300e-03,  1.11700e-03, -9.52600e-05, -6.76100e-05, -4.25600e-06],
                           [-6.28500e-02, -4.04300e-02, -2.44600e-03,  3.04300e-03,  1.31900e-03,  1.45100e-04, -5.93000e-05, -1.97500e-05],
                           [-3.11100e-02, -3.32700e-02, -6.31400e-03,  1.14900e-03,  1.05300e-03,  2.75000e-04, -1.22800e-05, -2.51800e-05]])
#  bRO2(+M) <=> bQOOHg(+M)                             1.000e+00 0.000     0.000
#      TCHEB/ 180.000   1500.000 /
#      PCHEB/ 0.010     98.692   /
#      CHEB/ 10 8/
#      CHEB/ -1.084e+01   8.930e-01    -3.865e-02   2.192e-02    -5.715e-03  /
#      CHEB/ 4.008e-04    2.076e-04    -4.746e-05   7.157e+00    1.053e+00   /
#      CHEB/ 8.898e-02    -1.284e-02   4.598e-03    -1.046e-03   -6.596e-05  /
#      CHEB/ 1.810e-04    -3.288e+00   1.142e-01    1.069e-01    -3.193e-03  /
#      CHEB/ -6.586e-05   1.766e-03    -6.100e-04   -1.193e-04   -1.555e+00  /
#      CHEB/ -1.521e-01   -3.219e-02   2.124e-02    1.467e-03    -8.067e-04  /
#      CHEB/ 3.024e-04    -2.211e-04   -5.934e-01   9.466e-03    -6.991e-02  /
#      CHEB/ 2.470e-03    7.065e-03    -1.719e-03   -1.278e-04   3.604e-04   /
#      CHEB/ -2.836e-01   1.091e-01    4.570e-03    -8.666e-03   -6.612e-04  /
#      CHEB/ 1.089e-03    -1.133e-04   9.670e-05    -2.295e-01   2.562e-02   /
#      CHEB/ 4.900e-02    6.516e-03    -5.744e-03   7.566e-04    5.975e-04   /
#      CHEB/ -3.614e-04   -1.780e-01   -6.567e-02   1.001e-02    1.616e-02   /
#      CHEB/ 1.786e-03    -1.292e-03   -1.255e-04   -1.923e-06   -8.307e-02  /
#      CHEB/ -7.015e-02   -3.072e-02   3.628e-03    7.168e-03    -4.742e-04  /
#      CHEB/ -8.858e-04   2.901e-04    -1.599e-02   -2.708e-02   -2.072e-02  /
#      CHEB/ -8.247e-03   6.025e-04    1.546e-03    2.038e-04    -9.191e-05  /

# Reaction 5
chebyshev_reaction('bQOOHa (+ M) <=> bQOOHg (+ M)',
                   Tmin=180.0, Tmax=1500.0,
                   Pmin=(0.01, 'atm'), Pmax=(98.692, 'atm'),
                   coeffs=[[-1.68600e+01,  3.31900e+00, -2.46900e-01, -8.59400e-02,  5.10900e-02,  1.05600e-02, -1.17500e-02, -1.73000e-03],
                           [-1.49700e+00, -3.39600e-01,  7.51400e-01,  1.71000e-01, -4.49900e-02, -6.31700e-03,  1.00500e-02, -1.47200e-03],
                           [-3.67500e+00, -4.86800e-01, -6.30300e-02,  4.60900e-03,  3.95700e-03, -1.69500e-03,  1.26700e-03,  2.21800e-03],
                           [-1.60000e+00, -2.38900e-01, -1.08500e-01, -5.99700e-03, -1.00300e-02, -6.58800e-03,  1.69000e-05,  1.25200e-03],
                           [-5.77500e-01,  1.52600e-01, -4.94100e-02, -2.38500e-03,  4.56700e-03, -2.78800e-03, -1.79100e-03, -3.06000e-04],
                           [-2.15200e-01,  1.45700e-01,  2.46600e-02,  3.61000e-03,  4.33400e-03,  1.66600e-03, -6.38400e-04, -3.19500e-04],
                           [-1.56600e-01, -1.87600e-02,  5.03100e-02,  1.46500e-02, -2.39800e-03,  8.22900e-04,  1.01500e-03, -3.70500e-05],
                           [-1.85400e-01, -3.69200e-02,  7.59500e-04,  1.00800e-02,  1.57300e-03,  2.84200e-04,  2.25400e-04, -6.27500e-05],
                           [-8.95000e-02, -5.86600e-02, -3.08200e-02, -6.64200e-04,  6.00900e-03, -6.61300e-05, -7.20700e-04,  2.29600e-04],
                           [ 9.49300e-03, -4.72800e-02, -2.23800e-02, -5.31100e-03,  4.96400e-04,  6.65100e-04,  9.10600e-05,  5.93300e-05]])

# Reaction 6
chebyshev_reaction('bQOOH[O] (+ M) <=> bQOOHg (+ M)',
                   Tmin=180.0, Tmax=1500.0,
                   Pmin=(0.01, 'atm'), Pmax=(98.692, 'atm'),
                   coeffs=[[-6.34300e+00,  9.80400e-02, -2.30800e-01,  4.86400e-02, -5.93000e-03, -6.16100e-04,  5.24200e-04, -1.19200e-04],
                           [-1.74500e+00,  2.19500e+00,  1.36400e-01, -5.73200e-02,  1.48400e-02, -4.95400e-04, -1.18700e-03,  4.45100e-04],
                           [-4.47000e+00,  2.28700e-02,  2.76700e-01,  5.80600e-03, -1.10200e-02,  3.05400e-03, -7.33600e-05, -3.82400e-04],
                           [-2.26500e+00, -5.52300e-01, -2.56200e-02,  7.05200e-02,  2.80100e-05, -4.65200e-03,  9.61200e-04, -1.37400e-05],
                           [-7.78700e-01, -2.13600e-01, -1.66500e-01,  1.65900e-02,  1.89900e-02, -2.66400e-03, -1.12100e-03,  5.50700e-04],
                           [-2.36800e-01,  1.07300e-01, -7.24900e-02, -3.20400e-02,  5.39100e-03,  4.65500e-03, -5.01100e-04, -1.99600e-04],
                           [-1.34100e-01,  1.31100e-01,  3.50900e-02, -1.96100e-02, -1.09000e-02,  3.34900e-03,  1.58000e-03, -5.30800e-04],
                           [-1.06300e-01,  4.18800e-02,  3.88700e-02,  8.06000e-03, -6.28200e-03, -2.33800e-03,  7.71100e-04,  2.29500e-04],
                           [-6.07500e-02, -1.39000e-02,  5.23300e-03,  1.18800e-02,  3.63200e-03, -3.20000e-03, -1.09100e-03,  5.73000e-04],
                           [-2.58900e-02, -2.35300e-02, -1.87700e-03,  4.48500e-03,  2.75400e-03, -2.05400e-04, -7.12500e-04, -6.10300e-05]])

# Reaction 7
chebyshev_reaction('O2 + bR (+ M) <=> bQOOHg (+ M)',
                   Tmin=180.0, Tmax=1500.0,
                   Pmin=(0.01, 'atm'), Pmax=(98.692, 'atm'),
                   coeffs=[[ 2.63700e+00,  4.59200e-01, -3.78400e-01,  1.87700e-02,  1.24500e-02,  1.48800e-04, -3.86500e-03,  1.53600e-03],
                           [-4.05700e+00,  1.37000e+00,  3.67300e-01, -8.65200e-02, -2.24100e-02,  7.38000e-03,  4.69400e-03, -2.83800e-03],
                           [-2.66300e+00,  3.27100e-02,  1.57300e-01,  5.08600e-02, -1.23300e-02, -7.95200e-03,  1.66800e-03,  1.37400e-03],
                           [-1.13100e+00, -1.99200e-01, -9.69300e-02,  5.32500e-02,  1.44000e-02, -5.42500e-03, -2.35300e-03,  6.13200e-04],
                           [-3.11100e-01,  6.88200e-02, -1.24700e-01, -1.11200e-02,  1.86500e-02,  2.07500e-03, -2.02400e-03, -3.06700e-04],
                           [-1.23200e-01,  1.96600e-01, -4.78800e-03, -3.30000e-02, -1.44400e-03,  5.66100e-03,  5.39100e-04, -5.88500e-04],
                           [-1.39000e-01,  8.63500e-02,  6.67000e-02, -6.12000e-03, -1.24200e-02,  1.73900e-03,  2.01700e-03, -3.54200e-04],
                           [-1.19000e-01, -2.99400e-02,  3.03900e-02,  1.50700e-02, -3.09600e-03, -2.73700e-03,  4.94100e-04,  3.36000e-04],
                           [-4.98200e-02, -5.36200e-02, -1.49100e-02,  7.18900e-03,  5.51400e-03, -2.01000e-03, -1.05000e-03,  5.20600e-04],
                           [-1.36700e-04, -2.17800e-02, -1.03200e-02, -4.19200e-03,  7.34500e-04,  7.89700e-04, -1.62800e-04, -5.85300e-05]])
#  bRO2(+M) <=> bQOOHa(+M)                             1.000e+00 0.000     0.000
#      TCHEB/ 180.000   1500.000 /
#      PCHEB/ 0.010     98.692   /
#      CHEB/ 10 8/
#      CHEB/ -1.419e+01   3.902e+00    -4.411e-01   -1.415e-01   7.214e-02   /
#      CHEB/ 1.778e-02    -1.218e-02   -2.365e-03   7.464e+00    -1.157e+00  /
#      CHEB/ 7.168e-01    1.623e-01    -6.873e-02   -8.679e-03   1.187e-02   /
#      CHEB/ -8.749e-04   -2.537e+00   -2.695e-01   -7.414e-05   6.488e-02   /
#      CHEB/ 1.091e-02    -7.656e-03   -6.852e-04   1.745e-03    -1.137e+00  /
#      CHEB/ -1.916e-02   -3.219e-02   9.667e-04    3.600e-04    -3.277e-03  /
#      CHEB/ -7.126e-04   8.949e-04    -6.259e-01   1.218e-01    8.800e-04   /
#      CHEB/ -1.269e-02   -2.467e-03   9.624e-04    -5.018e-04   -4.449e-04  /
#      CHEB/ -2.561e-01   -4.128e-03   -3.984e-03   1.390e-03    1.914e-03   /
#      CHEB/ 4.485e-04    3.013e-06    -4.107e-05   -8.178e-02   -8.271e-02  /
#      CHEB/ -1.281e-02   4.371e-03    2.633e-03    -3.574e-04   2.460e-04   /
#      CHEB/ 3.876e-04    -1.400e-01   1.357e-02    -1.252e-02   -6.646e-03  /
#      CHEB/ 9.871e-05    1.744e-03    2.367e-04    -2.070e-04   -7.766e-02  /
#      CHEB/ -4.669e-03   -3.371e-03   -4.068e-03   -1.689e-04   1.021e-03   /
#      CHEB/ 2.590e-04    -1.821e-04   2.163e-03    -4.351e-02   -8.370e-03  /
#      CHEB/ 2.747e-03    9.609e-04    -2.431e-04   8.523e-05    1.459e-04   /
#  bQOOHg(+M) <=> bQOOHa(+M)                           1.000e+00 0.000     0.000
#      TCHEB/ 180.000   1500.000 /
#      PCHEB/ 0.010     98.692   /
#      CHEB/ 10 8/
#      CHEB/ -1.273e+01   3.319e+00    -2.469e-01   -8.594e-02   5.109e-02   /
#      CHEB/ 1.056e-02    -1.175e-02   -1.730e-03   -4.972e+00   -3.396e-01  /
#      CHEB/ 7.514e-01    1.710e-01    -4.499e-02   -6.317e-03   1.005e-02   /
#      CHEB/ -1.472e-03   -3.765e+00   -4.868e-01   -6.303e-02   4.609e-03   /
#      CHEB/ 3.957e-03    -1.695e-03   1.267e-03    2.218e-03    -1.636e+00  /
#      CHEB/ -2.389e-01   -1.085e-01   -5.997e-03   -1.003e-02   -6.588e-03  /
#      CHEB/ 1.690e-05    1.252e-03    -5.881e-01   1.526e-01    -4.941e-02  /
#      CHEB/ -2.385e-03   4.567e-03    -2.788e-03   -1.791e-03   -3.060e-04  /
#      CHEB/ -2.179e-01   1.457e-01    2.466e-02    3.610e-03    4.334e-03   /
#      CHEB/ 1.666e-03    -6.384e-04   -3.195e-04   -1.573e-01   -1.876e-02  /
#      CHEB/ 5.031e-02    1.465e-02    -2.398e-03   8.229e-04    1.015e-03   /
#      CHEB/ -3.705e-05   -1.857e-01   -3.692e-02   7.595e-04    1.008e-02   /
#      CHEB/ 1.573e-03    2.842e-04    2.254e-04    -6.275e-05   -8.952e-02  /
#      CHEB/ -5.866e-02   -3.082e-02   -6.642e-04   6.009e-03    -6.613e-05  /
#      CHEB/ -7.207e-04   2.296e-04    9.560e-03    -4.728e-02   -2.238e-02  /
#      CHEB/ -5.311e-03   4.964e-04    6.651e-04    9.106e-05    5.933e-05   /

# Reaction 8
chebyshev_reaction('bQOOH[O] (+ M) <=> bQOOHa (+ M)',
                   Tmin=180.0, Tmax=1500.0,
                   Pmin=(0.01, 'atm'), Pmax=(98.692, 'atm'),
                   coeffs=[[-1.10900e+01,  3.20500e+00, -2.86900e-01, -9.98900e-02,  5.20500e-02,  7.85900e-03, -1.16900e-02, -1.11800e-03],
                           [-9.66100e-01, -3.69900e-01,  6.14600e-01,  1.85700e-01, -4.01500e-02, -5.44100e-03,  9.16200e-03, -2.07200e-03],
                           [-3.10000e+00, -2.34900e-01, -6.31700e-02,  1.56700e-02,  6.89700e-03, -1.88800e-03,  1.78100e-03,  2.06300e-03],
                           [-1.72800e+00, -1.68700e-01, -1.13800e-02, -5.43100e-03, -1.35700e-02, -5.71500e-03,  5.24400e-04,  1.58600e-03],
                           [-8.59400e-01, -3.02300e-02, -3.17600e-03,  1.01000e-02, -1.04200e-03, -2.49500e-03, -1.37400e-03, -3.44600e-04],
                           [-3.19900e-01, -3.37200e-02, -2.41100e-02,  9.75500e-03,  8.52800e-03,  1.76100e-04, -9.93700e-04, -2.67300e-04],
                           [-8.74200e-02, -1.85000e-02, -1.37800e-02, -2.02300e-03,  4.01200e-03,  1.08100e-03,  1.43200e-04,  1.27000e-04],
                           [-9.37900e-02,  7.15000e-02,  4.48900e-03, -9.93000e-03, -2.39500e-03,  2.24700e-03,  6.45800e-04, -2.94100e-04],
                           [-6.84500e-02,  2.08600e-02,  2.06700e-02,  1.60700e-03, -2.58300e-03, -3.30100e-04,  4.40200e-04,  4.30900e-06],
                           [-2.36400e-02, -4.81800e-02,  5.36300e-03,  1.20100e-02,  1.62100e-03, -1.91700e-03, -3.58300e-04,  3.49900e-04]])

# Reaction 9
chebyshev_reaction('O2 + bR (+ M) <=> bQOOHa (+ M)',
                   Tmin=180.0, Tmax=1500.0,
                   Pmin=(0.01, 'atm'), Pmax=(98.692, 'atm'),
                   coeffs=[[-3.96500e+00,  3.30500e+00,  3.34800e-02,  2.29400e-02,  9.24900e-02,  1.11000e-02, -1.79000e-02, -5.68100e-03],
                           [-1.55800e+00, -1.25400e+00,  2.30000e-01,  2.55200e-02, -8.56000e-02,  9.79100e-05,  2.00800e-02,  3.81700e-03],
                           [-1.14200e+00,  6.40400e-02, -1.22500e-01,  5.68300e-03, -8.10100e-03, -1.34300e-02, -2.08700e-03,  1.66900e-03],
                           [-6.76100e-01,  2.86800e-01,  2.48100e-03, -4.82100e-03, -1.60000e-03, -4.73700e-03, -1.97300e-03,  1.74900e-04],
                           [-4.60700e-01,  2.58700e-01,  5.53700e-02, -3.03500e-03,  1.09200e-03,  2.41300e-03, -2.73800e-04, -5.52100e-04],
                           [-2.42900e-01,  4.97700e-02,  4.25400e-02,  1.11100e-02,  2.29800e-03,  5.55300e-04,  2.27400e-04,  6.65900e-05],
                           [-1.17000e-01, -6.86200e-02,  1.73400e-02,  1.21500e-02,  1.74900e-03, -1.22500e-03,  1.88800e-04,  4.86500e-04],
                           [-1.20200e-01, -8.58800e-03, -2.70700e-03, -5.32100e-04,  6.44500e-04,  9.86600e-04, -9.73800e-05, -2.38700e-04],
                           [-6.97400e-02, -2.79000e-02, -1.89300e-03, -4.84400e-04,  6.73300e-04,  6.94700e-04,  4.89300e-05, -1.78000e-04],
                           [-4.98400e-03, -5.20300e-02, -7.17000e-03,  4.50900e-03,  1.21300e-03, -5.10400e-04, -1.08000e-04,  1.07900e-04]])
#  bRO2(+M) <=> bQOOH[O](+M)                           1.000e+00 0.000     0.000
#      TCHEB/ 180.000   1500.000 /
#      PCHEB/ 0.010     98.692   /
#      CHEB/ 10 8/
#      CHEB/ -7.033e+00   7.627e-01    -7.877e-02   1.532e-02    1.278e-03   /
#      CHEB/ -5.215e-04   -8.336e-05   2.714e-05    8.805e+00    1.071e+00   /
#      CHEB/ -2.969e-02   1.856e-03    5.977e-03    -9.111e-04   -2.881e-04  /
#      CHEB/ 8.979e-05    -2.793e+00   3.312e-01    8.647e-02    -1.498e-03  /
#      CHEB/ -4.785e-04   6.867e-04    -1.285e-04   -3.585e-05   -1.711e+00  /
#      CHEB/ -9.446e-02   5.802e-02    1.839e-02    -3.241e-03   -5.180e-04  /
#      CHEB/ 4.379e-04    -1.441e-05   -8.730e-01   -1.585e-01   -1.463e-02  /
#      CHEB/ 1.833e-02    2.204e-03    -1.471e-03   9.508e-05    1.795e-04   /
#      CHEB/ -3.862e-01   -6.394e-02   -3.918e-02   4.457e-04    4.921e-03   /
#      CHEB/ 1.257e-04    -4.103e-04   7.759e-05    -1.627e-01   2.220e-02   /
#      CHEB/ -1.655e-02   -1.014e-02   1.220e-03    1.504e-03    -8.200e-05  /
#      CHEB/ -1.612e-04   -8.735e-02   4.069e-02    1.207e-02    -5.031e-03  /
#      CHEB/ -2.705e-03   6.536e-04    4.239e-04    -1.219e-04   -6.218e-02  /
#      CHEB/ 8.860e-03    2.011e-02    5.153e-03    -1.961e-03   -9.567e-04  /
#      CHEB/ 2.327e-04    9.825e-05    -4.910e-02   -2.811e-02   7.140e-03   /
#      CHEB/ 9.086e-03    1.619e-03    -1.176e-03   -3.646e-04   1.460e-04   /
#  bQOOHg(+M) <=> bQOOH[O](+M)                         1.000e+00 0.000     0.000
#      TCHEB/ 180.000   1500.000 /
#      PCHEB/ 0.010     98.692   /
#      CHEB/ 10 8/
#      CHEB/ -4.170e+00   9.804e-02    -2.308e-01   4.864e-02    -5.930e-03  /
#      CHEB/ -6.161e-04   5.242e-04    -1.192e-04   -4.128e+00   2.195e+00   /
#      CHEB/ 1.364e-01    -5.732e-02   1.484e-02    -4.954e-04   -1.187e-03  /
#      CHEB/ 4.451e-04    -4.621e+00   2.287e-02    2.767e-01    5.806e-03   /
#      CHEB/ -1.102e-02   3.054e-03    -7.336e-05   -3.824e-04   -2.323e+00  /