units(length='cm', time='s', quantity='mol', act_energy='kcal/mol')

ideal_gas(name='gas',
          elements="H D T C Ci O Oi N Ne Ar He Si S F Cl Br I X",
          species="""OH             bQOOH[O]       acetone
                     H2O            balkoxyketone  ibutenol
                     trisub_epoxy   bQOOHg         CH2O
                     galkene        O2             bR
                     bQOOHa         bRO2           disub_epoxy
                     HO2""",
          reactions='all',
          initial_state=state(temperature=300.0, pressure=OneAtm))

#-------------------------------------------------------------------------------
# Element data
#-------------------------------------------------------------------------------

element(symbol='Ci', atomic_mass=13.003)
element(symbol='D', atomic_mass=2.014)
element(symbol='Oi', atomic_mass=18.0)
element(symbol='T', atomic_mass=3.016)
element(symbol='X', atomic_mass=195.083)
#-------------------------------------------------------------------------------
# Species data
#-------------------------------------------------------------------------------

species(name='OH',
        atoms='H:1 O:1',
        thermo=(NASA([10.00, 984.14],
                     [ 3.49686242E+00,  1.83973160E-04, -9.97634499E-07,
                       1.56942783E-09, -6.10128175E-13,  3.41673934E+03,
                       1.48093120E+00]),
                NASA([984.14, 3000.00],
                     [ 3.45221464E+00, -2.95124034E-04,  7.39418622E-07,
                      -2.89309866E-10,  3.53041498E-14,  3.45751599E+03,
                       1.85813897E+00])))

species(name='bQOOH[O]',
        atoms='C:4 H:9 O:3',
        thermo=(NASA([10.00, 338.69],
                     [ 3.60915854E+00,  3.39069566E-02,  2.22227265E-04,
                      -8.23527342E-07,  8.56246333E-10, -2.30189982E+04,
                       1.23284605E+01]),
                NASA([338.69, 3000.00],
                     [ 5.03198881E+00,  5.46235886E-02, -3.56935806E-05,
                       1.12371751E-08, -1.35390171E-12, -2.33305809E+04,
                       3.82760723E+00])))

species(name='acetone',
        atoms='C:3 H:6 O:1',
        thermo=(NASA([10.00, 414.35],
                     [ 3.73496166E+00,  3.05743218E-02, -1.26253585E-04,
                       3.66080978E-07, -3.31430437E-10, -2.65894833E+04,
                       8.24936012E+00]),
                NASA([414.35, 3000.00],
                     [ 1.70010292E-01,  3.28431468E-02, -1.80960132E-05,
                       4.82960690E-09, -5.02388538E-13, -2.60181002E+04,
                       2.56372653E+01])))

species(name='H2O',
        atoms='H:2 O:1',
        thermo=(NASA([10.00, 773.84],
                     [ 4.00473541E+00, -2.39729134E-04,  8.11862955E-07,
                       1.47891862E-09, -1.19783539E-12, -3.03533807E+04,
                      -9.96254147E-02]),
                NASA([773.84, 3000.00],
                     [ 3.52133374E+00,  1.05377009E-03,  6.40722099E-07,
                      -3.86240235E-10,  5.49243294E-14, -3.02424794E+04,
                       2.34173094E+00])))

species(name='balkoxyketone',
        atoms='C:4 H:7 O:2',
        thermo=(NASA([10.00, 269.93],
                     [ 3.81931151E+00,  1.68519318E-02,  2.42742224E-04,
                      -9.64821161E-07,  1.18509335E-09, -1.90006710E+04,
                       1.20521854E+01]),
                NASA([269.93, 3000.00],
                     [ 3.57555944E+00,  4.28868089E-02, -2.65390705E-05,
                       7.99659117E-09, -9.32983470E-13, -1.90691991E+04,
                       1.13957990E+01])))

species(name='ibutenol',
        atoms='C:4 H:8 O:1',
        thermo=(NASA([10.00, 135.97],
                     [ 3.95714996E+00,  5.72646980E-03,  4.63611760E-04,
                      -3.04137514E-06,  6.85019471E-09, -2.42701528E+04,
                       8.21931848E+00]),
                NASA([135.97, 3000.00],
                     [ 3.32467612E+00,  3.69033556E-02, -1.89960416E-05,
                       4.73417677E-09, -4.59705291E-13, -2.42645741E+04,
                       9.58133237E+00])))

species(name='trisub_epoxy',
        atoms='C:4 H:8 O:2',
        thermo=(NASA([10.00, 209.19],
                     [ 3.75295042E+00,  2.37546930E-02,  1.26610110E-04,
                      -4.78364365E-07,  5.79468168E-10, -4.01116339E+04,
                       1.12739684E+01]),
                NASA([209.19, 3000.00],
                     [ 2.64185254E+00,  4.50006531E-02, -2.57361066E-05,
                       7.15266054E-09, -7.72980731E-13, -4.00651483E+04,
                       1.48960343E+01])))

species(name='bQOOHg',
        atoms='C:4 H:9 O:3',
        thermo=(NASA([10.00, 441.09],
                     [ 3.56595280E+00,  3.36073467E-02,  2.03462772E-04,
                      -5.98977617E-07,  4.83271168E-10, -2.45079628E+04,
                       1.33537891E+01]),
                NASA([441.09, 3000.00],
                     [ 6.09031192E+00,  5.80517622E-02, -4.06392697E-05,
                       1.32574026E-08, -1.62501077E-12, -2.51911483E+04,
                      -1.97849715E+00])))

species(name='CH2O',
        atoms='C:1 H:2 O:1',
        thermo=(NASA([10.00, 601.31],
                     [ 4.03190845E+00, -1.93233367E-03,  8.89743345E-06,
                       2.98105926E-09, -7.90813886E-12, -1.42276270E+04,
                       3.47574660E+00]),
                NASA([601.31, 3000.00],
                     [ 1.40134195E+00,  9.48858016E-03, -4.43088317E-06,
                       9.48452194E-10, -7.43790219E-14, -1.38013869E+04,
                       1.57423780E+01])))

species(name='galkene',
        atoms='C:4 H:8 O:1',
        thermo=(NASA([10.00, 383.47],
                     [ 3.84035604E+00,  1.20378740E-02,  1.87486319E-04,
                      -5.44759148E-07,  4.80711015E-10, -1.95692471E+04,
                       1.02570291E+01]),
                NASA([383.47, 3000.00],
                     [ 4.00413385E+00,  3.79025144E-02, -2.15435710E-05,
                       6.15213311E-09, -6.97446345E-13, -1.97845365E+04,
                       6.98052628E+00])))

species(name='O2',
        atoms='O:2',
        thermo=(NASA([10.00, 605.96],
                     [ 3.50743498E+00, -4.43860349E-04,  1.45938058E-06,
                       1.61509333E-09, -2.32050052E-12, -9.24756224E+02,
                       4.72183634E+00]),
                NASA([605.96, 3000.00],
                     [ 2.87462882E+00,  2.17840991E-03, -1.18262921E-06,
                       2.86910493E-10, -2.53297146E-14, -8.19517838E+02,
                       7.69331810E+00])))

species(name='bR',
        atoms='C:4 H:9 O:1',
        thermo=(NASA([10.00, 483.43],
                     [ 3.38164846E+00,  5.97142637E-02, -1.58320095E-04,
                       3.04908893E-07, -2.13091806E-10, -1.37703759E+04,
                       1.09226843E+01]),
                NASA([483.43, 3000.00],
                     [ 2.33428824E+00,  4.22094427E-02, -2.28029290E-05,
                       6.04614564E-09, -6.30240159E-13, -1.33632939E+04,
                       1.83772893E+01])))

species(name='bQOOHa',
        atoms='C:4 H:9 O:3',
        thermo=(NASA([10.00, 390.53],
                     [ 3.54969236E+00,  3.76592474E-02,  1.76622653E-04,
                      -5.98063750E-07,  5.45069236E-10, -2.66829100E+04,
                       1.31518761E+01]),
                NASA([390.53, 3000.00],
                     [ 5.33564209E+00,  5.64935715E-02, -3.83214298E-05,
                       1.22990604E-08, -1.49549987E-12, -2.71055200E+04,
                       2.59015836E+00])))

species(name='bRO2',
        atoms='C:4 H:9 O:3',
        thermo=(NASA([10.00, 461.39],
                     [ 3.53964713E+00,  3.88723795E-02,  9.57420148E-05,
                      -2.80380499E-07,  2.09647462E-10, -3.11436547E+04,
                       1.18803618E+01]),
                NASA([461.39, 3000.00],
                     [ 3.47201723E+00,  6.00510247E-02, -4.00567321E-05,
                       1.25663813E-08, -1.49496682E-12, -3.13566015E+04,
                       9.77903975E+00])))

species(name='disub_epoxy',
        atoms='C:4 H:8 O:2',
        thermo=(NASA([10.00, 549.41],
                     [ 3.89863211E+00,  5.97532637E-03,  1.66685676E-04,
                      -3.10743768E-07,  1.78330192E-10, -3.69860642E+04,
                       1.13847308E+01]),
                NASA([549.41, 3000.00],
                     [-6.40277648E-01,  6.05960003E-02, -4.13427220E-05,
                       1.31555461E-08, -1.57685017E-12, -3.68129473E+04,
                       2.76005436E+01])))

species(name='HO2',
        atoms='H:1 O:2',
        thermo=(NASA([10.00, 891.11],
                     [ 4.02887004E+00, -1.75769289E-03,  1.08726004E-05,
                      -1.13812972E-08,  3.90113097E-12,  4.95165001E+02,
                       4.69302008E+00]),
                NASA([891.11, 3000.00],
                     [ 3.06571044E+00,  4.28505005E-03, -2.19325920E-06,
                       5.58882699E-10, -5.61246669E-14,  5.98557610E+02,
                       8.84564156E+00])))

#-------------------------------------------------------------------------------
# Reaction data
#-------------------------------------------------------------------------------

# Reaction 1
chebyshev_reaction('bQOOHg (+ M) <=> bRO2 (+ M)',
                   Tmin=180.0, Tmax=1500.0,
                   Pmin=(0.01, 'atm'), Pmax=(98.692, 'atm'),
                   coeffs=[[ 4.02500e+00,  4.16500e-01, -1.60100e-02, -2.83400e-03, -8.45100e-04,  5.83800e-04, -6.66500e-05, -4.99300e-05],
                           [ 1.66400e+00,  7.49800e-01, -2.61500e-02, -5.84300e-03, -1.19100e-03,  1.01600e-03, -1.12600e-04, -9.65500e-05],
                           [ 4.74300e-05,  5.43400e-01, -1.31700e-02, -6.00700e-03, -7.30300e-05,  6.87400e-04, -7.12100e-05, -8.63200e-05],
                           [-4.36400e-01,  3.11400e-01, -2.28300e-03, -5.59700e-03,  8.87800e-04,  4.22300e-04, -4.42900e-05, -7.04400e-05],
                           [-3.41800e-01,  1.37400e-01,  1.32500e-03, -4.59500e-03,  1.19500e-03,  3.38800e-04, -3.98400e-05, -5.32000e-05],
                           [-1.48700e-01,  4.75400e-02, -3.84800e-04, -3.49900e-03,  9.19600e-04,  3.62200e-04, -3.72600e-05, -3.88700e-05],
                           [-3.55700e-02,  1.82500e-02, -2.48900e-03, -2.67500e-03,  4.48400e-04,  3.57300e-04, -2.01200e-05, -2.81000e-05],
                           [-2.70000e-03,  1.30000e-02, -2.46000e-03, -2.04000e-03,  9.30900e-05,  2.73000e-04,  4.96000e-06, -1.88200e-05],
                           [-8.10300e-04,  1.01100e-02, -1.15700e-03, -1.38300e-03, -6.30300e-05,  1.54000e-04,  2.17400e-05, -9.86500e-06],
                           [-7.37200e-04,  5.57200e-03, -2.65600e-04, -7.28800e-04, -8.29100e-05,  6.01800e-05,  2.42600e-05, -2.13500e-06]])

# Reaction 2
chebyshev_reaction('bQOOHa (+ M) <=> bRO2 (+ M)',
                   Tmin=180.0, Tmax=1500.0,
                   Pmin=(0.01, 'atm'), Pmax=(98.692, 'atm'),
                   coeffs=[[ 2.31600e+00,  7.18500e-01, -8.84100e-02, -6.14400e-03,  2.83200e-03,  1.34800e-04, -2.04500e-04,  7.69500e-06],
                           [ 2.77300e+00,  1.19900e+00, -1.14200e-01, -1.76800e-02,  3.39700e-03,  8.21500e-04, -2.49700e-04, -3.98900e-05],
                           [ 1.00800e-01,  6.80700e-01,  4.21700e-03, -2.26400e-02, -1.83400e-03,  1.55700e-03,  1.62600e-04, -1.19000e-04],
                           [-5.15100e-01,  2.43700e-01,  6.55400e-02, -1.41800e-02, -5.74100e-03,  1.04600e-03,  5.60900e-04, -7.68500e-05],
                           [-3.61100e-01,  5.07600e-02,  4.78100e-02,  1.46400e-04, -4.99100e-03, -4.56900e-04,  5.72000e-04,  8.37800e-05],
                           [-1.43800e-01,  1.98300e-02,  9.02500e-03,  6.29900e-03, -1.32200e-03, -1.31000e-03,  1.67200e-04,  1.90800e-04],
                           [-4.30200e-02,  2.26200e-02, -6.90200e-03,  3.56300e-03,  1.04800e-03, -8.48500e-04, -2.19900e-04,  1.29500e-04],
                           [-1.49200e-02,  1.34500e-02, -3.51600e-03, -8.05400e-05,  8.82500e-04, -3.08800e-05, -2.52400e-04, -5.53900e-06],
                           [-6.38100e-03,  2.90400e-03,  1.14900e-03, -8.17800e-04,  3.06600e-05,  2.28000e-04, -7.14000e-05, -6.26000e-05],
                           [-1.01600e-03,  1.37100e-04,  1.22300e-03, -2.27000e-04, -1.45800e-04,  6.45100e-05,  3.35400e-05, -3.01300e-05]])

# Reaction 3
chebyshev_reaction('bQOOH[O] (+ M) <=> bRO2 (+ M)',
                   Tmin=180.0, Tmax=1500.0,
                   Pmin=(0.01, 'atm'), Pmax=(98.692, 'atm'),
                   coeffs=[[ 7.92700e+00,  7.31400e-01, -1.73200e-01,  1.43200e-02,  5.90200e-03, -3.67400e-04, -6.40200e-04, -1.13500e-04],
                           [ 4.97100e-01,  1.00900e+00, -1.43400e-01, -2.66600e-02,  1.65200e-02,  1.38300e-03, -1.93200e-03, -1.95800e-04],
                           [-7.33200e-01,  4.63700e-01,  2.60500e-02, -3.77400e-02,  2.53900e-03,  5.18400e-03, -9.02800e-04, -7.34400e-04],
                           [-4.75800e-01,  1.93100e-01,  4.57300e-02, -1.16600e-02, -7.01700e-03,  2.98100e-03,  1.07000e-03, -6.71800e-04],
                           [-2.57300e-01,  8.57800e-02,  2.18100e-02,  2.86800e-03, -5.10000e-03, -3.68100e-04,  1.28200e-03, -2.20100e-05],
                           [-1.33600e-01,  3.88900e-02,  5.69200e-03,  3.70500e-03, -1.11600e-03, -1.22500e-03,  4.50700e-04,  3.10700e-04],
                           [-6.02200e-02,  1.61800e-02,  5.23600e-04,  1.07100e-03,  4.75600e-04, -6.35100e-04, -9.59000e-05,  2.25800e-04],
                           [-2.22800e-02,  6.17400e-03, -1.16600e-05, -3.94200e-04,  3.60700e-04, -7.27100e-05, -1.59400e-04,  5.96300e-05],
                           [-6.15000e-03,  2.62800e-03,  3.29600e-04, -5.33900e-04, -5.31000e-05,  8.73400e-05, -5.31000e-05, -1.53600e-05],
                           [-6.92400e-04,  1.85200e-03,  2.78100e-04, -1.90300e-04, -2.04200e-04,  3.07000e-05,  1.83600e-05, -1.69100e-05]])

# Reaction 4
chebyshev_reaction('O2 + bR (+ M) <=> bRO2 (+ M)',
                   Tmin=180.0, Tmax=1500.0,
                   Pmin=(0.01, 'atm'), Pmax=(98.692, 'atm'),
                   coeffs=[[ 1.36800e+01,  8.18500e-01, -9.40800e-02,  3.21200e-03,  2.46000e-04, -1.08400e-04, -3.91800e-05,  7.93600e-06],
                           [-1.60600e+00,  8.69700e-01,  6.24400e-03, -1.51900e-02, -7.74800e-04,  2.86700e-04,  3.75300e-05, -1.79500e-05],
                           [-6.81600e-01,  2.34400e-01,  4.61300e-02,  4.34100e-04, -1.49700e-03, -3.46900e-04,  3.60700e-05,  1.95500e-05],
                           [-2.73600e-01,  3.30900e-02,  1.65900e-02,  3.81000e-03,  3.86500e-04, -1.55000e-04, -6.29900e-05, -3.02400e-06],
                           [-1.17600e-01,  1.03500e-02,  2.56200e-03,  8.05600e-04,  3.04500e-04,  1.07500e-04, -3.53000e-06, -1.00300e-05],
                           [-5.44000e-02,  5.08600e-03,  1.83400e-03,  9.92800e-05, -1.06300e-04,  2.32500e-05,  1.66300e-05,  2.41900e-06],
                           [-1.75500e-02, -4.67000e-03,  1.41800e-03,  4.43700e-04, -2.32200e-05, -3.21500e-05, -4.24000e-06,  1.72100e-06],
                           [ 2.92900e-03, -8.73300e-03,  1.82500e-04,  3.31400e-04,  7.08300e-05, -5.20800e-06, -4.74100e-06, -1.21200e-06],
                           [ 8.79100e-03, -5.80400e-03, -6.36300e-04,  7.22100e-05,  4.79300e-05,  7.81700e-06,  2.63600e-07,  2.85700e-09],
                           [ 8.40600e-03, -3.25700e-03, -3.70700e-04, -1.67200e-05, -3.67100e-06,  6.92300e-07,  1.33400e-06,  6.14400e-07]])
#  bRO2(+M) <=> bQOOHg(+M)                             1.000e+00 0.000     0.000
#      TCHEB/ 180.000   1500.000 /
#      PCHEB/ 0.010     98.692   /
#      CHEB/ 10 8/
#      CHEB/ -3.989e+00   4.165e-01    -1.601e-02   -2.834e-03   -8.451e-04  /
#      CHEB/ 5.838e-04    -6.665e-05   -4.993e-05   9.102e+00    7.498e-01   /
#      CHEB/ -2.615e-02   -5.843e-03   -1.191e-03   1.016e-03    -1.126e-04  /
#      CHEB/ -9.655e-05   1.458e-01    5.434e-01    -1.317e-02   -6.007e-03  /
#      CHEB/ -7.303e-05   6.874e-04    -7.121e-05   -8.632e-05   -3.993e-01  /
#      CHEB/ 3.114e-01    -2.283e-03   -5.597e-03   8.878e-04    4.223e-04   /
#      CHEB/ -4.429e-05   -7.044e-05   -3.360e-01   1.374e-01    1.325e-03   /
#      CHEB/ -4.595e-03   1.195e-03    3.388e-04    -3.984e-05   -5.320e-05  /
#      CHEB/ -1.488e-01   4.754e-02    -3.848e-04   -3.499e-03   9.196e-04   /
#      CHEB/ 3.622e-04    -3.726e-05   -3.887e-05   -3.615e-02   1.825e-02   /
#      CHEB/ -2.489e-03   -2.675e-03   4.484e-04    3.573e-04    -2.012e-05  /
#      CHEB/ -2.810e-05   -3.152e-03   1.300e-02    -2.460e-03   -2.040e-03  /
#      CHEB/ 9.309e-05    2.730e-04    4.960e-06    -1.882e-05   -1.134e-03  /
#      CHEB/ 1.011e-02    -1.157e-03   -1.383e-03   -6.303e-05   1.540e-04   /
#      CHEB/ 2.174e-05    -9.865e-06   -9.235e-04   5.572e-03    -2.656e-04  /
#      CHEB/ -7.288e-04   -8.291e-05   6.018e-05    2.426e-05    -2.135e-06  /

# Reaction 5
chebyshev_reaction('bQOOHa (+ M) <=> bQOOHg (+ M)',
                   Tmin=180.0, Tmax=1500.0,
                   Pmin=(0.01, 'atm'), Pmax=(98.692, 'atm'),
                   coeffs=[[-5.40700e+00, -6.31700e-01, -1.69700e-01, -4.51400e-03,  2.80900e-03,  8.19700e-05, -3.09700e-04,  9.44300e-05],
                           [ 7.48100e+00,  2.04500e+00, -1.50800e-01, -3.81500e-02,  4.20700e-03,  1.68000e-03, -4.86900e-04,  1.18600e-05],
                           [-2.52600e-01,  9.15300e-01,  5.25100e-02, -3.91900e-02, -5.35400e-03,  2.85100e-03,  3.88100e-04, -2.51000e-04],
                           [-7.20900e-01,  3.17300e-01,  3.70200e-02, -4.24300e-03, -6.42100e-03, -6.05000e-04,  9.81600e-04,  2.38300e-05],
                           [-2.26800e-01,  1.38600e-01, -1.76400e-02,  6.11300e-03,  1.18800e-03, -2.45600e-03,  3.65000e-05,  3.49100e-04],
                           [-2.09900e-02,  6.43600e-02, -1.49400e-02, -9.83700e-04,  3.33800e-03, -7.40500e-04, -6.73900e-04,  1.21600e-04],
                           [-2.46200e-03,  2.27500e-02, -1.62900e-03, -2.01500e-03,  1.03200e-03,  4.25900e-04, -3.37600e-04, -1.51000e-04],
                           [-1.31000e-02,  8.30700e-03, -9.17200e-04,  4.02300e-04, -1.64400e-05,  2.78800e-04,  3.89400e-05, -1.35400e-04],
                           [-2.28000e-03,  2.98200e-03, -2.18800e-03,  7.67800e-04, -5.24500e-05,  1.23100e-04,  1.17300e-04, -5.71200e-05],
                           [-1.65300e-03, -4.10400e-04, -9.49600e-04,  2.94700e-04, -2.63900e-04,  9.18200e-05,  1.35100e-04, -2.01400e-05]])

# Reaction 6
chebyshev_reaction('bQOOH[O] (+ M) <=> bQOOHg (+ M)',
                   Tmin=180.0, Tmax=1500.0,
                   Pmin=(0.01, 'atm'), Pmax=(98.692, 'atm'),
                   coeffs=[[ 1.13900e+00, -6.77100e-01, -2.56000e-01,  1.63100e-02,  7.56500e-03, -1.26300e-03, -5.05700e-04,  1.23300e-04],
                           [ 3.55300e+00,  1.71000e+00, -1.44100e-01, -5.57100e-02,  1.59800e-02,  4.20800e-03, -2.35400e-03, -1.21300e-04],
                           [-4.65900e-01,  7.92100e-01,  3.11600e-02, -3.84000e-02, -6.83300e-03,  6.32100e-03,  7.87300e-04, -1.03100e-03],
                           [-6.14900e-01,  3.45700e-01,  1.28000e-02, -5.09100e-03, -7.41100e-03, -4.07100e-05,  2.23700e-03, -1.15100e-04],
                           [-2.45700e-01,  1.41400e-01, -6.49700e-03, -1.31900e-03, -4.52100e-04, -2.07500e-03,  7.39000e-04,  6.19600e-04],
                           [-4.61100e-02,  5.61200e-02, -4.53200e-03, -3.27600e-03,  5.08900e-04, -8.03700e-04, -1.89300e-04,  3.97600e-04],
                           [-4.62900e-03,  2.74800e-02,  5.84800e-05, -1.88800e-03, -6.87400e-04, -1.41400e-04, -1.24900e-04,  7.89900e-05],
                           [-1.54400e-02,  1.53900e-02,  1.35700e-03, -9.29300e-05, -7.41500e-04, -2.16200e-04,  5.11900e-06, -1.52600e-06],
                           [-6.68400e-03,  6.09300e-03,  1.12300e-03,  4.43300e-04, -3.07700e-04, -1.95300e-04, -1.72900e-05, -5.62700e-06],
                           [-5.44800e-03,  1.38100e-03,  4.37700e-04,  4.66900e-04, -1.60800e-04, -7.38300e-05, -2.42100e-05, -1.93300e-05]])

# Reaction 7
chebyshev_reaction('O2 + bR (+ M) <=> bQOOHg (+ M)',
                   Tmin=180.0, Tmax=1500.0,
                   Pmin=(0.01, 'atm'), Pmax=(98.692, 'atm'),
                   coeffs=[[ 9.40500e+00, -6.31200e-01, -1.85200e-01,  9.66200e-03,  2.18800e-05,  1.08700e-03, -2.76400e-04, -3.59500e-05],
                           [-2.93000e-01,  1.43600e+00, -7.22200e-02, -1.83200e-02,  4.76000e-03,  9.82700e-05,  1.51300e-04, -1.29200e-04],
                           [-4.15800e-01,  4.51700e-01, -2.12300e-02, -6.64300e-03,  4.74500e-03,  5.27500e-04, -1.82500e-04, -7.56500e-05],
                           [-1.55600e-01,  1.22600e-01, -1.35400e-02, -1.57800e-02,  4.49500e-03,  1.52800e-03, -1.64600e-04, -1.00200e-04],
                           [-4.65600e-03,  5.68600e-02,  3.89000e-03, -1.55700e-02, -1.57800e-04,  1.91600e-03,  6.69000e-05, -1.19500e-04],
                           [ 1.20000e-02,  2.42600e-02,  1.47700e-02, -8.43200e-03, -2.80700e-03,  1.38500e-03,  2.89400e-04, -1.10800e-04],
                           [ 5.91200e-03, -1.54900e-04,  1.35600e-02, -2.70400e-03, -2.99700e-03,  5.54700e-04,  4.33800e-04, -5.26200e-05],
                           [-1.80100e-03, -8.67200e-03,  8.52300e-03,  1.18600e-04, -2.18600e-03, -1.48900e-04,  3.96700e-04,  3.66800e-05],
                           [ 3.02800e-03, -3.76400e-03,  2.79900e-03,  1.83500e-03, -1.39600e-03, -4.31900e-04,  2.18500e-04,  8.96700e-05],
                           [-9.49600e-04, -3.22100e-03,  1.56400e-03,  1.42500e-03, -3.74000e-04, -4.95400e-04,  5.01300e-05,  9.40400e-05]])
#  bRO2(+M) <=> bQOOHa(+M)                             1.000e+00 0.000     0.000
#      TCHEB/ 180.000   1500.000 /
#      PCHEB/ 0.010     98.692   /
#      CHEB/ 10 8/
#      CHEB/ -2.864e+00   7.185e-01    -8.841e-02   -6.144e-03   2.832e-03   /
#      CHEB/ 1.348e-04    -2.045e-04   7.695e-06    7.754e+00    1.199e+00   /
#      CHEB/ -1.142e-01   -1.768e-02   3.397e-03    8.215e-04    -2.497e-04  /
#      CHEB/ -3.989e-05   1.558e-01    6.807e-01    4.217e-03    -2.264e-02  /
#      CHEB/ -1.834e-03   1.557e-03    1.626e-04    -1.190e-04   -5.139e-01  /
#      CHEB/ 2.437e-01    6.554e-02    -1.418e-02   -5.741e-03   1.046e-03   /
#      CHEB/ 5.609e-04    -7.685e-05   -3.659e-01   5.076e-02    4.781e-02   /
#      CHEB/ 1.464e-04    -4.991e-03   -4.569e-04   5.720e-04    8.378e-05   /
#      CHEB/ -1.466e-01   1.983e-02    9.025e-03    6.299e-03    -1.322e-03  /
#      CHEB/ -1.310e-03   1.672e-04    1.908e-04    -4.437e-02   2.262e-02   /
#      CHEB/ -6.902e-03   3.563e-03    1.048e-03    -8.485e-04   -2.199e-04  /
#      CHEB/ 1.295e-04    -1.564e-02   1.345e-02    -3.516e-03   -8.054e-05  /
#      CHEB/ 8.825e-04    -3.088e-05   -2.524e-04   -5.539e-06   -6.729e-03  /
#      CHEB/ 2.904e-03    1.149e-03    -8.178e-04   3.066e-05    2.280e-04   /
#      CHEB/ -7.140e-05   -6.260e-05   -1.136e-03   1.371e-04    1.223e-03   /
#      CHEB/ -2.270e-04   -1.458e-04   6.451e-05    3.354e-05    -3.013e-05  /
#  bQOOHg(+M) <=> bQOOHa(+M)                           1.000e+00 0.000     0.000
#      TCHEB/ 180.000   1500.000 /
#      PCHEB/ 0.010     98.692   /
#      CHEB/ 10 8/
#      CHEB/ -2.573e+00   -6.317e-01   -1.697e-01   -4.514e-03   2.809e-03   /
#      CHEB/ 8.197e-05    -3.097e-04   9.443e-05    5.024e+00    2.045e+00   /
#      CHEB/ -1.508e-01   -3.815e-02   4.207e-03    1.680e-03    -4.869e-04  /
#      CHEB/ 1.186e-05    -3.434e-01   9.153e-01    5.251e-02    -3.919e-02  /
#      CHEB/ -5.354e-03   2.851e-03    3.881e-04    -2.510e-04   -7.567e-01  /
#      CHEB/ 3.173e-01    3.702e-02    -4.243e-03   -6.421e-03   -6.050e-04  /
#      CHEB/ 9.816e-04    2.383e-05    -2.373e-01   1.386e-01    -1.764e-02  /
#      CHEB/ 6.113e-03    1.188e-03    -2.456e-03   3.650e-05    3.491e-04   /
#      CHEB/ -2.361e-02   6.436e-02    -1.494e-02   -9.837e-04   3.338e-03   /
#      CHEB/ -7.405e-04   -6.739e-04   1.216e-04    -3.229e-03   2.275e-02   /
#      CHEB/ -1.629e-03   -2.015e-03   1.032e-03    4.259e-04    -3.376e-04  /
#      CHEB/ -1.510e-04   -1.337e-02   8.307e-03    -9.172e-04   4.023e-04   /
#      CHEB/ -1.644e-05   2.788e-04    3.894e-05    -1.354e-04   -2.304e-03  /
#      CHEB/ 2.982e-03    -2.188e-03   7.678e-04    -5.245e-05   1.231e-04   /
#      CHEB/ 1.173e-04    -5.712e-05   -1.586e-03   -4.104e-04   -9.496e-04  /
#      CHEB/ 2.947e-04    -2.639e-04   9.182e-05    1.351e-04    -2.014e-05  /

# Reaction 8
chebyshev_reaction('bQOOH[O] (+ M) <=> bQOOHa (+ M)',
                   Tmin=180.0, Tmax=1500.0,
                   Pmin=(0.01, 'atm'), Pmax=(98.692, 'atm'),
                   coeffs=[[ 1.68200e+00, -2.94200e-01, -3.53400e-01,  2.06600e-02,  1.04800e-02, -1.97400e-03, -7.29500e-04,  1.42200e-04],
                           [ 2.85400e+00,  2.12900e+00, -1.94100e-01, -7.37500e-02,  2.00900e-02,  4.35200e-03, -2.70800e-03, -2.30200e-04],
                           [-7.25400e-01,  7.84600e-01,  1.20200e-01, -6.00900e-02, -1.23500e-02,  8.06400e-03,  1.05000e-03, -1.27000e-03],
                           [-6.74400e-01,  2.37100e-01,  9.17200e-02, -3.94300e-03, -1.65100e-02,  2.87500e-04,  2.83200e-03, -1.93100e-04],
                           [-2.73000e-01,  8.97600e-02,  1.94500e-02,  1.11300e-02, -5.07700e-03, -3.26900e-03,  1.00900e-03,  6.71200e-04],
                           [-6.95500e-02,  4.14200e-02, -2.05500e-03,  5.48500e-03,  4.31400e-04, -1.93100e-03, -3.02000e-04,  4.32800e-04],
                           [-1.84700e-02,  1.57200e-02,  6.44600e-04,  1.11800e-03,  5.24300e-04, -4.99500e-04, -3.49400e-04,  7.04700e-05],
                           [-1.51700e-02,  4.78500e-03,  2.22200e-03,  5.32000e-04,  2.96600e-05, -7.50700e-05, -1.40800e-04, -3.34600e-05],
                           [-6.93800e-03,  1.63000e-03,  5.72000e-04,  6.34600e-04,  1.33100e-05,  1.59900e-05, -4.83000e-05, -3.63600e-05],
                           [-4.82000e-03,  7.71800e-04, -6.25200e-04,  3.65400e-04,  5.04000e-05,  4.64600e-05, -1.32600e-06, -2.67700e-05]])

# Reaction 9
chebyshev_reaction('O2 + bR (+ M) <=> bQOOHa (+ M)',
                   Tmin=180.0, Tmax=1500.0,
                   Pmin=(0.01, 'atm'), Pmax=(98.692, 'atm'),
                   coeffs=[[ 9.57800e+00,  6.65100e-02, -3.53600e-01,  6.57400e-03,  1.46600e-02, -3.47500e-03, -1.35700e-03,  8.47300e-04],
                           [-8.33100e-01,  1.49500e+00,  1.10300e-01, -6.92200e-02, -1.36400e-02,  7.84600e-03,  9.46200e-04, -1.28200e-03],
                           [-6.19900e-01,  3.35300e-01,  1.11100e-01, -6.26900e-04, -1.37900e-02, -1.80200e-03,  2.12600e-03,  3.07500e-04],
                           [-2.27400e-01,  1.89900e-02,  3.89200e-02,  1.05800e-02, -3.68300e-03, -3.09400e-03,  1.40500e-04,  6.44900e-04],
                           [-2.41200e-02, -1.18100e-02,  1.12100e-02,  7.19900e-03,  1.76300e-04, -1.79800e-03, -6.67800e-04,  2.40000e-04],
                           [ 1.62500e-02, -1.19900e-02,  4.17900e-03,  4.80300e-03,  1.31100e-03, -6.40900e-04, -6.34300e-04, -7.75600e-05],
                           [ 9.30400e-03, -1.31100e-02, -9.77900e-05,  2.47600e-03,  1.40600e-03,  8.40600e-05, -3.42000e-04, -1.67500e-04],
                           [ 2.51500e-03, -1.04200e-02, -1.83800e-03,  7.09700e-04,  8.10200e-04,  2.98200e-04, -6.82200e-05, -1.23600e-04],
                           [ 3.86400e-03, -3.06000e-03, -2.00000e-03, -1.88000e-04,  3.65400e-04,  2.40700e-04,  3.03300e-05, -5.05200e-05],
                           [ 5.66000e-04, -1.19300e-03, -8.86500e-04, -1.72800e-04,  5.45200e-05,  1.14800e-04,  6.32400e-05, -7.21100e-06]])
#  bRO2(+M) <=> bQOOH[O](+M)                           1.000e+00 0.000     0.000
#      TCHEB/ 180.000   1500.000 /
#      PCHEB/ 0.010     98.692   /
#      CHEB/ 10 8/
#      CHEB/ -2.611e+00   7.314e-01    -1.732e-01   1.432e-02    5.902e-03   /
#      CHEB/ -3.674e-04   -6.402e-04   -1.135e-04   9.245e+00    1.009e+00   /
#      CHEB/ -1.434e-01   -2.666e-02   1.652e-02    1.383e-03    -1.932e-03  /
#      CHEB/ -1.958e-04   -7.391e-01   4.637e-01    2.605e-02    -3.774e-02  /
#      CHEB/ 2.539e-03    5.184e-03    -9.028e-04   -7.344e-04   -4.969e-01  /
#      CHEB/ 1.931e-01    4.573e-02    -1.166e-02   -7.017e-03   2.981e-03   /
#      CHEB/ 1.070e-03    -6.718e-04   -2.681e-01   8.578e-02    2.181e-02   /
#      CHEB/ 2.868e-03    -5.100e-03   -3.681e-04   1.282e-03    -2.201e-05  /
#      CHEB/ -1.376e-01   3.889e-02    5.692e-03    3.705e-03    -1.116e-03  /
#      CHEB/ -1.225e-03   4.507e-04    3.107e-04    -6.173e-02   1.618e-02   /
#      CHEB/ 5.236e-04    1.071e-03    4.756e-04    -6.351e-04   -9.590e-05  /
#      CHEB/ 2.258e-04    -2.290e-02   6.174e-03    -1.166e-05   -3.942e-04  /
#      CHEB/ 3.607e-04    -7.271e-05   -1.594e-04   5.963e-05    -6.328e-03  /
#      CHEB/ 2.628e-03    3.296e-04    -5.339e-04   -5.310e-05   8.734e-05   /
#      CHEB/ -5.310e-05   -1.536e-05   -6.864e-04   1.852e-03    2.781e-04   /
#      CHEB/ -1.903e-04   -2.042e-04   3.070e-05    1.836e-05    -1.691e-05  /
#  bQOOHg(+M) <=> bQOOH[O](+M)                         1.000e+00 0.000     0.000
#      TCHEB/ 180.000   1500.000 /
#      PCHEB/ 0.010     98.692   /
#      CHEB/ 10 8/
#      CHEB/ -1.387e+00   -6.771e-01   -2.560e-01   1.631e-02    7.565e-03   /
#      CHEB/ -1.263e-03   -5.057e-04   1.233e-04    4.863e+00    1.710e+00   /
#      CHEB/ -1.441e-01   -5.571e-02   1.598e-02    4.208e-03    -2.354e-03  /
#      CHEB/ -1.213e-04   -6.175e-01   7.921e-01    3.116e-02    -3.840e-02  /
#      CHEB/ -6.833e-03   6.321e-03    7.873e-04    -1.031e-03   -6.731e-01  /