units(length='cm', time='s', quantity='mol', act_energy='kcal/mol')

ideal_gas(name='gas',
          elements="H D T C Ci O Oi N Ne Ar He Si S F Cl Br I X",
          species="""propene3ol       OH               disub_c4ether
                     H2O              disub_epoxy      gQOOHa
                     propene1ol       gQOOHb           ipropylOOH
                     galdoxy          galkene          CH2O
                     O2               gRO2             gQOOHg
                     gR               galdol           monosub_c4ether
                     HO2              gQOOH[O]""",
          reactions='all',
          initial_state=state(temperature=300.0, pressure=OneAtm))

#-------------------------------------------------------------------------------
# Element data
#-------------------------------------------------------------------------------

element(symbol='Ci', atomic_mass=13.003)
element(symbol='D', atomic_mass=2.014)
element(symbol='Oi', atomic_mass=18.0)
element(symbol='T', atomic_mass=3.016)
element(symbol='X', atomic_mass=195.083)
#-------------------------------------------------------------------------------
# Species data
#-------------------------------------------------------------------------------

species(name='propene3ol',
        atoms='C:3 H:6 O:1',
        thermo=(NASA([10.00, 444.81],
                     [ 3.92769709E+00,  4.89977303E-03,  1.13094874E-04,
                      -2.59008187E-07,  1.86205760E-10, -1.51980383E+04,
                       9.90805416E+00]),
                NASA([444.81, 3000.00],
                     [ 2.61720343E+00,  3.01777872E-02, -1.76511625E-05,
                       5.14864061E-09, -5.91153761E-13, -1.52149388E+04,
                       1.36683107E+01])))

species(name='OH',
        atoms='H:1 O:1',
        thermo=(NASA([10.00, 984.14],
                     [ 3.49686242E+00,  1.83973160E-04, -9.97634499E-07,
                       1.56942783E-09, -6.10128175E-13,  3.41673934E+03,
                       1.48093120E+00]),
                NASA([984.14, 3000.00],
                     [ 3.45221464E+00, -2.95124034E-04,  7.39418622E-07,
                      -2.89309866E-10,  3.53041498E-14,  3.45751599E+03,
                       1.85813897E+00])))

species(name='disub_c4ether',
        atoms='C:4 H:8 O:2',
        thermo=(NASA([10.00, 413.50],
                     [ 3.78241323E+00,  1.89501763E-02,  8.65302396E-05,
                      -1.80580575E-07,  1.13656264E-10, -3.87645184E+04,
                       1.09982450E+01]),
                NASA([413.50, 3000.00],
                     [ 4.29420885E-01,  5.13851903E-02, -3.11292293E-05,
                       9.11498284E-09, -1.03192718E-12, -3.84872241E+04,
                       2.42134976E+01])))

species(name='H2O',
        atoms='H:2 O:1',
        thermo=(NASA([10.00, 773.84],
                     [ 4.00473541E+00, -2.39729134E-04,  8.11862955E-07,
                       1.47891862E-09, -1.19783539E-12, -3.03533807E+04,
                      -9.96254147E-02]),
                NASA([773.84, 3000.00],
                     [ 3.52133374E+00,  1.05377009E-03,  6.40722099E-07,
                      -3.86240235E-10,  5.49243294E-14, -3.02424794E+04,
                       2.34173094E+00])))

species(name='disub_epoxy',
        atoms='C:4 H:8 O:2',
        thermo=(NASA([10.00, 549.41],
                     [ 3.89863211E+00,  5.97532637E-03,  1.66685676E-04,
                      -3.10743768E-07,  1.78330192E-10, -3.90387902E+04,
                       1.13847308E+01]),
                NASA([549.41, 3000.00],
                     [-6.40277648E-01,  6.05960003E-02, -4.13427220E-05,
                       1.31555461E-08, -1.57685017E-12, -3.88656734E+04,
                       2.76005436E+01])))

species(name='gQOOHa',
        atoms='C:4 H:9 O:3',
        thermo=(NASA([10.00, 160.74],
                     [ 3.80808147E+00,  2.31043884E-02,  5.26945984E-04,
                      -3.11500696E-06,  6.03881958E-09, -2.52850929E+04,
                       1.17645316E+01]),
                NASA([160.74, 3000.00],
                     [ 2.90630300E+00,  6.50241173E-02, -4.60073244E-05,
                       1.51330930E-08, -1.87074267E-12, -2.52812683E+04,
                       1.36838819E+01])))

species(name='propene1ol',
        atoms='C:3 H:6 O:1',
        thermo=(NASA([10.00, 459.42],
                     [ 3.91245344E+00,  5.85800161E-03,  1.15412006E-04,
                      -2.68014417E-07,  1.91800131E-10, -1.69033251E+04,
                       8.14807684E+00]),
                NASA([459.42, 3000.00],
                     [ 3.14049093E+00,  2.95550898E-02, -1.73843684E-05,
                       5.11506211E-09, -5.92966137E-13, -1.70115476E+04,
                       9.32215170E+00])))

species(name='gQOOHb',
        atoms='C:4 H:9 O:3',
        thermo=(NASA([10.00, 1018.67],
                     [ 3.99028351E+00,  4.29665712E-02,  2.28338778E-05,
                      -5.67914439E-08,  2.29383258E-11, -2.21173150E+04,
                       1.20326731E+01]),
                NASA([1018.67, 3000.00],
                     [ 1.38304153E+01,  3.88527019E-02, -2.19473905E-05,
                       5.78719895E-09, -5.85097740E-13, -2.59133997E+04,
                      -4.44147388E+01])))

species(name='ipropylOOH',
        atoms='C:3 H:7 O:2',
        thermo=(NASA([10.00, 405.01],
                     [ 3.30075623E+00,  7.58672756E-02, -3.35754269E-04,
                       8.05972164E-07, -6.68864582E-10, -1.21600387E+02,
                       1.43372849E+01]),
                NASA([405.01, 3000.00],
                     [ 2.51742509E+00,  3.72760950E-02, -2.12450220E-05,
                       5.83593926E-09, -6.22110649E-13,  3.21807219E+02,
                       2.20991392E+01])))

species(name='galdoxy',
        atoms='C:4 H:7 O:2',
        thermo=(NASA([10.00, 209.62],
                     [ 3.82641108E+00,  1.84758886E-02,  3.43073800E-04,
                      -1.82817005E-06,  2.98516720E-09, -1.77764812E+04,
                       1.17972706E+01]),
                NASA([209.62, 3000.00],
                     [ 4.22049016E+00,  4.03370149E-02, -2.36129482E-05,
                       6.72979114E-09, -7.47862493E-13, -1.78575510E+04,
                       8.97211724E+00])))

species(name='galkene',
        atoms='C:4 H:8 O:1',
        thermo=(NASA([10.00, 383.47],
                     [ 3.84035604E+00,  1.20378740E-02,  1.87486319E-04,
                      -5.44759148E-07,  4.80711015E-10, -1.99556942E+04,
                       1.02570291E+01]),
                NASA([383.47, 3000.00],
                     [ 4.00413385E+00,  3.79025144E-02, -2.15435710E-05,
                       6.15213311E-09, -6.97446345E-13, -2.01709835E+04,
                       6.98052628E+00])))

species(name='CH2O',
        atoms='C:1 H:2 O:1',
        thermo=(NASA([10.00, 601.31],
                     [ 4.03190845E+00, -1.93233367E-03,  8.89743345E-06,
                       2.98105926E-09, -7.90813886E-12, -1.42276270E+04,
                       3.47574660E+00]),
                NASA([601.31, 3000.00],
                     [ 1.40134195E+00,  9.48858016E-03, -4.43088317E-06,
                       9.48452194E-10, -7.43790219E-14, -1.38013869E+04,
                       1.57423780E+01])))

species(name='O2',
        atoms='O:2',
        thermo=(NASA([10.00, 605.96],
                     [ 3.50743498E+00, -4.43860349E-04,  1.45938058E-06,
                       1.61509333E-09, -2.32050052E-12, -9.24756224E+02,
                       4.72183634E+00]),
                NASA([605.96, 3000.00],
                     [ 2.87462882E+00,  2.17840991E-03, -1.18262921E-06,
                       2.86910493E-10, -2.53297146E-14, -8.19517838E+02,
                       7.69331810E+00])))

species(name='gRO2',
        atoms='C:4 H:9 O:3',
        thermo=(NASA([10.00, 177.33],
                     [ 3.70632176E+00,  3.49733664E-02,  4.64036392E-04,
                      -3.18637835E-06,  6.38178607E-09, -2.62740442E+04,
                       1.24459269E+01]),
                NASA([177.33, 3000.00],
                     [ 4.82062697E+00,  5.17179689E-02, -3.18386818E-05,
                       9.52247045E-09, -1.10180288E-12, -2.63794147E+04,
                       7.14082953E+00])))

species(name='gQOOHg',
        atoms='C:4 H:9 O:3',
        thermo=(NASA([10.00, 475.03],
                     [ 3.42273720E+00,  4.98344215E-02,  6.47820920E-05,
                      -2.49842966E-07,  1.98636537E-10, -2.14247637E+04,
                       1.41578583E+01]),
                NASA([475.03, 3000.00],
                     [ 5.94049074E+00,  5.53778585E-02, -3.71708255E-05,
                       1.17540477E-08, -1.40812095E-12, -2.19657180E+04,
                       7.09201218E-01])))

species(name='gR',
        atoms='C:4 H:9 O:1',
        thermo=(NASA([10.00, 638.24],
                     [ 3.37074633E+00,  5.17529751E-02, -6.54872940E-05,
                       6.88084237E-08, -3.21569794E-11, -7.83957417E+03,
                       1.14339669E+01]),
                NASA([638.24, 3000.00],
                     [ 3.99410860E+00,  4.06314915E-02, -2.23932510E-05,
                       6.08356263E-09, -6.49884708E-13, -7.77219946E+03,
                       9.85769960E+00])))

species(name='galdol',
        atoms='C:4 H:8 O:2',
        thermo=(NASA([10.00, 506.68],
                     [ 3.85380874E+00,  9.21272695E-03,  1.86712348E-04,
                      -3.96417049E-07,  2.55528268E-10, -4.58577593E+04,
                       1.24312743E+01]),
                NASA([506.68, 3000.00],
                     [ 1.49710213E+00,  5.65979142E-02, -3.87709084E-05,
                       1.23682052E-08, -1.48287964E-12, -4.59883687E+04,
                       1.85531759E+01])))

species(name='monosub_c4ether',
        atoms='C:4 H:8 O:2',
        thermo=(NASA([10.00, 380.36],
                     [ 3.47743996E+00,  6.08051311E-02, -2.78518945E-04,
                       8.23182713E-07, -7.87158031E-10, -3.20967155E+04,
                       1.06415154E+01]),
                NASA([380.36, 3000.00],
                     [-1.09346901E+00,  5.35985968E-02, -3.21081420E-05,
                       9.20818293E-09, -1.01830294E-12, -3.13491555E+04,
                       3.35312368E+01])))

species(name='HO2',
        atoms='H:1 O:2',
        thermo=(NASA([10.00, 891.11],
                     [ 4.02887004E+00, -1.75769289E-03,  1.08726004E-05,
                      -1.13812972E-08,  3.90113097E-12,  4.95165001E+02,
                       4.69302008E+00]),
                NASA([891.11, 3000.00],
                     [ 3.06571044E+00,  4.28505005E-03, -2.19325920E-06,
                       5.58882699E-10, -5.61246669E-14,  5.98557610E+02,
                       8.84564156E+00])))

species(name='gQOOH[O]',
        atoms='C:4 H:9 O:3',
        thermo=(NASA([10.00, 535.23],
                     [ 3.83107445E+00,  1.02302002E-02,  2.29377261E-04,
                      -4.59095575E-07,  2.77765018E-10, -2.05863990E+04,
                       1.41034859E+01]),
                NASA([535.23, 3000.00],
                     [-4.19283096E-01,  7.69784620E-02, -5.57279000E-05,
                       1.81378295E-08, -2.18295635E-12, -2.06325124E+04,
                       2.72711816E+01])))

#-------------------------------------------------------------------------------
# Reaction data
#-------------------------------------------------------------------------------

# Reaction 1
chebyshev_reaction('gQOOH[O] (+ M) <=> gRO2 (+ M)',
                   Tmin=180.0, Tmax=1500.0,
                   Pmin=(0.01, 'atm'), Pmax=(98.692, 'atm'),
                   coeffs=[[ 2.47300e+00,  9.35600e-01, -1.41100e-01,  3.74600e-02, -2.24700e-03,  2.88300e-04, -7.41000e-04,  2.02500e-04],
                           [-7.53700e-01,  1.17400e+00, -5.19400e-02,  1.02300e-02,  9.62500e-03, -2.68900e-03, -3.76400e-04,  2.10400e-04],
                           [-3.55700e+00,  2.19500e-01,  1.09500e-01,  2.65200e-03,  9.85700e-04, -4.07700e-04,  1.07000e-04,  1.05400e-04],
                           [-2.21300e+00, -2.88000e-01,  8.47100e-02,  2.05900e-02, -2.50400e-03, -4.80600e-04,  6.00500e-04,  1.47200e-05],
                           [-1.09900e+00, -3.62500e-01,  1.28700e-03,  2.19300e-02,  9.40200e-04, -1.10700e-04,  3.02600e-04, -1.16600e-04],
                           [-4.24000e-01, -2.49500e-01, -4.78400e-02,  1.02900e-02,  3.31000e-03,  8.57800e-04,  4.15000e-05, -2.73900e-04],
                           [-9.17200e-02, -1.06100e-01, -5.78200e-02, -7.00100e-04,  3.57200e-03,  1.01800e-03, -2.17800e-05, -2.18200e-04],
                           [ 2.40600e-02,  2.60600e-03, -4.54000e-02, -8.34400e-03,  2.87400e-03,  8.28400e-04, -1.40100e-04, -3.10200e-05],
                           [ 3.82500e-02,  5.64300e-02, -2.13300e-02, -1.30900e-02,  7.86000e-04,  8.97100e-04, -8.83500e-05,  8.27000e-05],
                           [ 2.25600e-02,  6.25600e-02,  3.68100e-03, -1.27900e-02, -2.56800e-03,  8.33100e-04,  3.12700e-04,  1.17400e-04]])

# Reaction 2
chebyshev_reaction('gQOOHa (+ M) <=> gRO2 (+ M)',
                   Tmin=180.0, Tmax=1500.0,
                   Pmin=(0.01, 'atm'), Pmax=(98.692, 'atm'),
                   coeffs=[[ 3.17300e+00,  9.80700e-01, -1.50600e-02,  6.54000e-03, -2.17500e-04, -5.21300e-04, -2.31600e-04,  7.36100e-05],
                           [-3.25800e+00,  1.39200e+00,  5.99700e-02,  6.06800e-03,  4.19700e-04, -1.56400e-03, -2.17600e-04,  1.10800e-04],
                           [-3.99800e+00,  3.72400e-01,  1.23900e-01,  2.38200e-02, -2.81600e-03, -1.55600e-03, -3.69500e-05,  6.99900e-05],
                           [-2.43600e+00, -2.54300e-01,  4.97800e-02,  4.20600e-02,  1.24800e-03, -2.04400e-03, -2.25700e-04,  2.88100e-05],
                           [-1.17400e+00, -3.49000e-01, -5.32400e-02,  3.00000e-02,  8.74500e-03, -7.37200e-04, -7.47100e-04, -1.45000e-04],
                           [-4.12100e-01, -2.00300e-01, -8.68300e-02,  4.78800e-03,  9.07600e-03,  1.47400e-03, -6.86300e-04, -3.70500e-04],
                           [-8.63000e-02, -4.97900e-02, -6.33600e-02, -8.02900e-03,  4.36500e-03,  1.75400e-03, -2.19400e-04, -3.15200e-04],
                           [ 1.54100e-02,  2.87800e-02, -3.13000e-02, -8.45900e-03,  1.79900e-03,  7.25400e-04, -1.70100e-04, -7.36900e-05],
                           [ 8.67700e-03,  5.11800e-02, -1.18300e-02, -7.77300e-03,  1.51000e-03,  6.88700e-04, -2.88900e-04, -7.13300e-06],
                           [-1.33900e-03,  4.47400e-02,  5.82900e-04, -9.56500e-03, -2.26700e-04,  1.52300e-03,  1.84600e-04, -9.61000e-05]])

# Reaction 3
chebyshev_reaction('gQOOHg (+ M) <=> gRO2 (+ M)',
                   Tmin=180.0, Tmax=1500.0,
                   Pmin=(0.01, 'atm'), Pmax=(98.692, 'atm'),
                   coeffs=[[ 3.64000e+00,  1.60400e+00, -1.45900e-01,  1.69700e-02,  6.80200e-03, -2.40500e-03, -1.05100e-03,  4.26100e-04],
                           [-6.66100e+00,  1.06100e+00,  2.36400e-01,  5.26100e-03, -1.94200e-02,  2.36900e-03,  1.29100e-03, -7.46500e-04],
                           [-4.18800e+00, -6.66700e-02,  7.96000e-02,  6.73900e-02, -2.36500e-03, -8.52100e-03,  5.02000e-04,  1.21100e-03],
                           [-2.18300e+00, -2.08900e-01, -3.97600e-02,  1.41500e-02,  1.21500e-02,  1.50300e-03, -2.20700e-03, -5.94200e-04],
                           [-9.46400e-01, -2.16900e-01, -1.30100e-02,  9.47500e-03, -1.81300e-03,  3.08400e-04,  1.28400e-03, -3.67200e-04],
                           [-4.04200e-01, -1.65900e-01, -1.44700e-02,  2.26200e-02,  2.82500e-03, -3.47400e-03, -5.29200e-04,  5.54600e-04],
                           [-1.71900e-01, -1.02100e-01, -5.41000e-02,  1.10300e-02,  1.20300e-02,  4.46400e-04, -2.02000e-03, -4.06600e-04],
                           [ 2.63700e-03, -7.73900e-02, -6.27000e-02, -7.09800e-03,  7.25800e-03,  3.33500e-03, -1.07800e-04, -7.52200e-04],
                           [ 2.45900e-02,  4.74900e-02, -4.45900e-02, -2.26200e-02,  2.19800e-03,  2.25200e-03, -1.24500e-04,  1.43400e-04],
                           [ 2.62500e-02,  6.14800e-02,  1.30100e-02, -1.46300e-02, -7.47200e-03,  3.35700e-04,  1.09300e-03,  1.50000e-04]])

# Reaction 4
chebyshev_reaction('gQOOHb (+ M) <=> gRO2 (+ M)',
                   Tmin=180.0, Tmax=1500.0,
                   Pmin=(0.01, 'atm'), Pmax=(98.692, 'atm'),
                   coeffs=[[ 2.02100e-01,  1.02900e+00,  2.62800e-02,  8.27700e-03, -4.58100e-03,  4.38600e-04, -2.75900e-04,  1.20300e-04],
                           [-1.57000e+00,  1.49800e+00,  1.10500e-01,  8.37900e-04, -7.89300e-04, -1.00400e-03, -9.13200e-05,  1.03900e-04],
                           [-3.56600e+00,  5.14000e-01,  1.08000e-01,  7.90500e-03,  3.47900e-03, -7.51600e-04, -1.89900e-04,  5.06400e-05],
                           [-2.22600e+00, -1.34300e-01,  2.66000e-02,  1.76800e-02,  6.04200e-03, -1.07800e-04, -2.37100e-04, -2.46700e-05],
                           [-1.15900e+00, -3.02900e-01, -4.21100e-02,  1.42700e-02,  6.22800e-03,  4.28100e-04, -1.60500e-04, -9.98100e-05],
                           [-4.67800e-01, -2.19100e-01, -6.27300e-02,  7.30600e-03,  4.64400e-03,  3.31000e-04, -8.94400e-05, -1.27000e-04],
                           [-1.17600e-01, -8.82900e-02, -5.86000e-02,  2.00500e-03,  4.14400e-03,  1.01100e-04, -2.19000e-04, -1.04600e-04],
                           [ 1.27900e-02,  7.08500e-03, -4.56000e-02, -5.05200e-03,  3.95100e-03,  5.63500e-04, -3.01100e-04, -7.56800e-05],
                           [ 2.86700e-02,  5.43700e-02, -2.38700e-02, -1.22100e-02,  1.40800e-03,  1.25100e-03,  4.80100e-06, -1.78500e-05],
                           [ 2.91000e-02,  6.17700e-02,  1.86700e-03, -1.35400e-02, -2.85800e-03,  1.11300e-03,  5.67800e-04,  8.93900e-05]])

# Reaction 5
chebyshev_reaction('O2 + gR (+ M) <=> gRO2 (+ M)',
                   Tmin=180.0, Tmax=1500.0,
                   Pmin=(0.01, 'atm'), Pmax=(98.692, 'atm'),
                   coeffs=[[ 9.01500e+00,  2.02800e+00, -6.82800e-01,  1.77800e-01, -2.01000e-02, -8.79000e-03,  6.19900e-03, -1.88100e-03],
                           [-3.46700e+00,  1.21500e+00,  1.87300e-01, -2.28400e-01,  7.89800e-02, -3.29700e-03, -8.99100e-03,  3.98900e-03],
                           [-2.21200e+00,  4.39700e-01,  2.58500e-01, -1.02300e-01, -6.67200e-03,  1.82700e-02, -5.19700e-03, -8.37200e-04],
                           [-1.34400e+00, -3.91700e-02,  2.05100e-01, -1.44300e-02, -2.69300e-02,  9.63500e-03,  1.59900e-03, -1.84800e-03],
                           [-7.32200e-01, -2.25500e-01,  9.55000e-02,  2.93100e-02, -1.81900e-02, -4.86800e-04,  3.04400e-03, -6.41200e-04],
                           [-3.19300e-01, -2.39000e-01,  7.26200e-03,  3.39700e-02, -4.12200e-03, -3.87900e-03,  1.21800e-03,  2.69700e-04],
                           [-8.74800e-02, -1.50000e-01, -4.35500e-02,  2.01600e-02,  4.82000e-03, -2.93700e-03, -5.03200e-04,  3.17600e-04],
                           [ 1.25900e-02, -4.26400e-02, -5.08100e-02,  1.62700e-03,  6.76400e-03, -6.14700e-04, -1.11800e-03,  4.03300e-05],
                           [ 3.32100e-02,  3.30000e-02, -2.96000e-02, -1.06800e-02,  3.55900e-03,  1.04600e-03, -7.28400e-04, -1.44300e-04],
                           [ 2.07000e-02,  5.78600e-02, -2.39600e-04, -1.27400e-02, -1.33100e-03,  1.38600e-03,  1.03000e-04, -1.36600e-04]])
#  gRO2(+M) <=> gQOOH[O](+M)                           1.000e+00 0.000     0.000
#      TCHEB/ 180.000   1500.000 /
#      PCHEB/ 0.010     98.692   /
#      CHEB/ 10 8/
#      CHEB/ -5.697e+00   9.356e-01    -1.411e-01   3.746e-02    -2.247e-03  /
#      CHEB/ 2.883e-04    -7.410e-04   2.025e-04    5.020e+00    1.174e+00   /
#      CHEB/ -5.194e-02   1.023e-02    9.625e-03    -2.689e-03   -3.764e-04  /
#      CHEB/ 2.104e-04    -3.384e+00   2.195e-01    1.095e-01    2.652e-03   /
#      CHEB/ 9.857e-04    -4.077e-04   1.070e-04    1.054e-04    -2.088e+00  /
#      CHEB/ -2.880e-01   8.471e-02    2.059e-02    -2.504e-03   -4.806e-04  /
#      CHEB/ 6.005e-04    1.472e-05    -1.045e+00   -3.625e-01   1.287e-03   /
#      CHEB/ 2.193e-02    9.402e-04    -1.107e-04   3.026e-04    -1.166e-04  /
#      CHEB/ -4.050e-01   -2.495e-01   -4.784e-02   1.029e-02    3.310e-03   /
#      CHEB/ 8.578e-04    4.150e-05    -2.739e-04   -8.551e-02   -1.061e-01  /
#      CHEB/ -5.782e-02   -7.001e-04   3.572e-03    1.018e-03    -2.178e-05  /
#      CHEB/ -2.182e-04   2.598e-02    2.606e-03    -4.540e-02   -8.344e-03  /
#      CHEB/ 2.874e-03    8.284e-04    -1.401e-04   -3.102e-05   3.871e-02   /
#      CHEB/ 5.643e-02    -2.133e-02   -1.309e-02   7.860e-04    8.971e-04   /
#      CHEB/ -8.835e-05   8.270e-05    2.253e-02    6.256e-02    3.681e-03   /
#      CHEB/ -1.279e-02   -2.568e-03   8.331e-04    3.127e-04    1.174e-04   /

# Reaction 6
chebyshev_reaction('gQOOHa (+ M) <=> gQOOH[O] (+ M)',
                   Tmin=180.0, Tmax=1500.0,
                   Pmin=(0.01, 'atm'), Pmax=(98.692, 'atm'),
                   coeffs=[[-7.07500e+00,  4.64800e-01, -3.58100e-01,  3.50300e-03,  2.59700e-02,  2.80900e-03, -6.57900e-03,  6.85200e-04],
                           [ 3.68600e+00,  1.68600e+00,  1.80600e-01,  1.92400e-02, -2.53000e-02, -1.13900e-03,  6.56100e-03, -1.69900e-03],
                           [-3.79800e+00,  1.53600e-01,  1.81500e-01,  6.20800e-02,  2.55500e-03, -1.19800e-02, -1.24500e-03,  2.72600e-03],
                           [-2.24700e+00, -4.37600e-01,  4.81800e-02,  4.56800e-02,  1.21700e-02, -1.87300e-03, -3.05500e-03, -1.77100e-04],
                           [-1.03200e+00, -4.21000e-01, -4.94100e-02,  1.31700e-02,  7.95100e-03,  3.95100e-03, -4.78700e-04, -1.29800e-03],
                           [-3.65100e-01, -2.37700e-01, -6.19500e-02, -3.55800e-03,  6.88600e-04,  2.82300e-03,  1.13700e-03, -5.54500e-04],
                           [-7.58700e-02, -8.80700e-02, -3.99600e-02, -1.64100e-03, -1.10300e-03, -4.28000e-04,  6.33700e-04,  1.81200e-04],
                           [ 7.15300e-03, -4.38800e-03, -2.50900e-02,  2.25500e-03,  2.61800e-03, -1.45300e-03, -7.14300e-04,  2.63500e-04],
                           [ 1.48900e-02,  2.96800e-02, -1.84100e-02, -1.82200e-03,  5.17300e-03,  1.94200e-04, -1.09400e-03, -4.74000e-05],
                           [ 9.04600e-03,  3.87100e-02, -8.13500e-03, -9.85300e-03,  2.26100e-03,  2.24300e-03, -1.03800e-04, -3.01100e-04]])

# Reaction 7
chebyshev_reaction('gQOOHg (+ M) <=> gQOOH[O] (+ M)',
                   Tmin=180.0, Tmax=1500.0,
                   Pmin=(0.01, 'atm'), Pmax=(98.692, 'atm'),
                   coeffs=[[-5.37400e+00,  1.09600e+00, -5.74400e-01,  6.42400e-02,  4.12000e-02, -1.80100e-02, -1.54100e-03,  2.85700e-03],
                           [-1.16000e+00,  1.26700e+00,  4.84100e-01, -6.30500e-02, -3.46200e-02,  2.23900e-02, -3.78400e-03, -2.71600e-03],
                           [-3.78600e+00, -3.47000e-01,  1.77600e-01,  1.20200e-01, -2.28900e-02, -1.62000e-02,  6.95900e-03,  8.15500e-04],
                           [-1.92600e+00, -4.21800e-01, -5.56800e-02,  3.76700e-02,  2.24500e-02, -6.72300e-03, -3.11200e-03,  1.52600e-03],
                           [-7.73600e-01, -2.65900e-01, -3.74200e-02, -4.60800e-03,  6.19600e-03,  2.89500e-03, -1.34300e-03, -3.84300e-04],
                           [-3.49300e-01, -1.54700e-01, -3.92200e-03,  7.53100e-03, -1.98300e-03,  9.66500e-04, -3.05100e-04, -4.78800e-04],
                           [-1.88200e-01, -1.07600e-01, -2.82300e-02,  1.26900e-02,  4.20900e-03,  7.40500e-04, -5.37000e-04, -7.07400e-04],
                           [-2.62600e-02, -1.11000e-01, -4.76700e-02,  5.13500e-03,  4.01200e-03,  1.14100e-03,  6.25100e-04, -4.78500e-04],
                           [ 1.68900e-02,  1.62800e-02, -4.81200e-02, -1.36700e-02,  4.95500e-03,  3.18700e-04, -6.13600e-04,  5.82600e-04],
                           [ 3.46400e-02,  4.33200e-02,  1.47000e-03, -1.13200e-02, -4.62900e-03, -1.31100e-05,  6.27000e-04,  1.47400e-04]])

# Reaction 8
chebyshev_reaction('gQOOHb (+ M) <=> gQOOH[O] (+ M)',
                   Tmin=180.0, Tmax=1500.0,
                   Pmin=(0.01, 'atm'), Pmax=(98.692, 'atm'),
                   coeffs=[[-7.59100e+00,  2.41700e-01, -1.67600e-01,  1.90600e-02,  6.65500e-05,  3.20700e-04, -9.41800e-04,  2.39700e-04],
                           [ 2.36000e+00,  2.11400e+00,  1.33500e-01,  3.65800e-03, -7.80400e-05, -2.46500e-03,  5.15000e-06,  2.36000e-04],
                           [-2.93100e+00,  1.21400e-01,  1.30600e-01,  4.24000e-02,  5.73200e-03, -2.99700e-03, -5.80000e-04,  2.81300e-04],
                           [-1.85800e+00, -3.63700e-01, -3.06700e-03,  2.15400e-02,  8.38300e-03,  6.06900e-04, -1.46500e-04, -1.09300e-04],
                           [-9.50500e-01, -2.94600e-01, -3.63400e-02,  5.32000e-03,  1.21600e-03,  1.06500e-03,  5.83400e-04, -1.81900e-04],
                           [-4.34400e-01, -1.84500e-01, -3.51300e-02,  6.72200e-03,  4.61300e-04,  3.53600e-05,  1.95800e-04, -2.17800e-04],
                           [-1.58500e-01, -1.06400e-01, -4.04200e-02,  5.96100e-03,  3.72900e-03,  1.13200e-04, -2.19100e-04, -2.11100e-04],
                           [-2.49900e-02, -3.79600e-02, -4.34100e-02, -1.71000e-03,  4.82800e-03,  7.74700e-04, -3.09200e-04, -7.43000e-05],
                           [ 3.20600e-02,  1.90200e-02, -3.06200e-02, -1.11000e-02,  2.47900e-03,  1.34200e-03, -1.05300e-04,  3.10300e-05],
                           [ 3.76400e-02,  5.12500e-02, -5.62800e-03, -1.48700e-02, -1.98300e-03,  1.34800e-03,  3.91700e-04,  7.72800e-05]])

# Reaction 9
chebyshev_reaction('O2 + gR (+ M) <=> gQOOH[O] (+ M)',
                   Tmin=180.0, Tmax=1500.0,
                   Pmin=(0.01, 'atm'), Pmax=(98.692, 'atm'),
                   coeffs=[[ 3.56600e+00,  1.89700e+00, -8.86900e-01,  1.38200e-01, -9.04900e-03, -9.94600e-03,  5.24600e-03, -3.82700e-04],
                           [-2.36900e+00,  9.77900e-01,  2.61900e-01, -1.49600e-01,  7.54100e-02, -6.06500e-03, -1.01900e-02,  2.74000e-03],
                           [-1.43000e+00,  2.47200e-01,  2.15000e-01, -8.77000e-02, -1.17600e-02,  2.15400e-02, -2.57400e-03, -1.23800e-03],
                           [-8.19700e-01, -8.17700e-02,  1.55200e-01, -8.61400e-03, -3.07900e-02,  6.94700e-03,  2.34200e-03, -1.11900e-03],
                           [-4.99600e-01, -1.56700e-01,  7.74800e-02,  3.00800e-02, -1.76400e-02, -2.34000e-03,  2.48600e-03, -6.20700e-04],
                           [-3.03800e-01, -1.68800e-01,  1.60800e-02,  3.19100e-02, -2.40200e-03, -3.71400e-03,  8.88500e-04,  6.09700e-05],
                           [-1.68200e-01, -1.30000e-01, -2.42400e-02,  1.80100e-02,  4.70100e-03, -2.03300e-03, -2.65400e-04,  2.04000e-04],
                           [-6.40800e-02, -7.04200e-02, -3.82500e-02,  2.66400e-03,  5.82600e-03, -3.25300e-04, -8.63900e-04,  6.47700e-05],
                           [ 1.81600e-03, -4.43700e-03, -3.04800e-02, -8.51500e-03,  3.06300e-03,  9.63100e-04, -6.38000e-04, -1.24400e-04],
                           [ 3.33900e-02,  3.80300e-02, -9.98900e-03, -1.16700e-02, -9.60600e-04,  1.20200e-03,  4.35600e-05, -1.29800e-04]])
#  gRO2(+M) <=> gQOOHa(+M)                             1.000e+00 0.000     0.000
#      TCHEB/ 180.000   1500.000 /
#      PCHEB/ 0.010     98.692   /
#      CHEB/ 10 8/
#      CHEB/ 1.528e+00    9.807e-01    -1.506e-02   6.540e-03    -2.175e-04  /
#      CHEB/ -5.213e-04   -2.316e-04   7.361e-05    -1.989e+00   1.392e+00   /
#      CHEB/ 5.997e-02    6.068e-03    4.197e-04    -1.564e-03   -2.176e-04  /
#      CHEB/ 1.108e-04    -3.837e+00   3.724e-01    1.239e-01    2.382e-02   /
#      CHEB/ -2.816e-03   -1.556e-03   -3.695e-05   6.999e-05    -2.361e+00  /
#      CHEB/ -2.543e-01   4.978e-02    4.206e-02    1.248e-03    -2.044e-03  /
#      CHEB/ -2.257e-04   2.881e-05    -1.145e+00   -3.490e-01   -5.324e-02  /
#      CHEB/ 3.000e-02    8.745e-03    -7.372e-04   -7.471e-04   -1.450e-04  /
#      CHEB/ -4.023e-01   -2.003e-01   -8.683e-02   4.788e-03    9.076e-03   /
#      CHEB/ 1.474e-03    -6.863e-04   -3.705e-04   -8.340e-02   -4.979e-02  /
#      CHEB/ -6.336e-02   -8.029e-03   4.365e-03    1.754e-03    -2.194e-04  /
#      CHEB/ -3.152e-04   1.604e-02    2.878e-02    -3.130e-02   -8.459e-03  /
#      CHEB/ 1.799e-03    7.254e-04    -1.701e-04   -7.369e-05   8.673e-03   /
#      CHEB/ 5.118e-02    -1.183e-02   -7.773e-03   1.510e-03    6.887e-04   /
#      CHEB/ -2.889e-04   -7.133e-06   -1.457e-03   4.474e-02    5.829e-04   /
#      CHEB/ -9.565e-03   -2.267e-04   1.523e-03    1.846e-04    -9.610e-05  /
#  gQOOH[O](+M) <=> gQOOHa(+M)                         1.000e+00 0.000     0.000
#      TCHEB/ 180.000   1500.000 /
#      PCHEB/ 0.010     98.692   /
#      CHEB/ 10 8/
#      CHEB/ -5.492e-01   4.648e-01    -3.581e-01   3.503e-03    2.597e-02   /
#      CHEB/ 2.809e-03    -6.579e-03   6.852e-04    -8.184e-01   1.686e+00   /
#      CHEB/ 1.806e-01    1.924e-02    -2.530e-02   -1.139e-03   6.561e-03   /
#      CHEB/ -1.699e-03   -3.809e+00   1.536e-01    1.815e-01    6.208e-02   /
#      CHEB/ 2.555e-03    -1.198e-02   -1.245e-03   2.726e-03    -2.298e+00  /
#      CHEB/ -4.376e-01   4.818e-02    4.568e-02    1.217e-02    -1.873e-03  /
#      CHEB/ -3.055e-03   -1.771e-04   -1.057e+00   -4.210e-01   -4.941e-02  /
#      CHEB/ 1.317e-02    7.951e-03    3.951e-03    -4.787e-04   -1.298e-03  /
#      CHEB/ -3.743e-01   -2.377e-01   -6.195e-02   -3.558e-03   6.886e-04   /
#      CHEB/ 2.823e-03    1.137e-03    -5.545e-04   -7.918e-02   -8.807e-02  /
#      CHEB/ -3.996e-02   -1.641e-03   -1.103e-03   -4.280e-04   6.337e-04   /
#      CHEB/ 1.812e-04    5.866e-03    -4.388e-03   -2.509e-02   2.255e-03   /
#      CHEB/ 2.618e-03    -1.453e-03   -7.143e-04   2.635e-04    1.443e-02   /
#      CHEB/ 2.968e-02    -1.841e-02   -1.822e-03   5.173e-03    1.942e-04   /