units(length='cm', time='s', quantity='mol', act_energy='kcal/mol')

ideal_gas(name='gas',
          elements="H D T C Ci O Oi N Ne Ar He Si S F Cl Br I X",
          species="""OH             bQOOH[O]       acetone
                     H2O            balkoxyketone  ibutenol
                     trisub_epoxy   bQOOHg         CH2O
                     galkene        O2             bR
                     bQOOHa         bRO2           disub_epoxy
                     HO2""",
          reactions='all',
          initial_state=state(temperature=300.0, pressure=OneAtm))

#-------------------------------------------------------------------------------
# Element data
#-------------------------------------------------------------------------------

element(symbol='Ci', atomic_mass=13.003)
element(symbol='D', atomic_mass=2.014)
element(symbol='Oi', atomic_mass=18.0)
element(symbol='T', atomic_mass=3.016)
element(symbol='X', atomic_mass=195.083)
#-------------------------------------------------------------------------------
# Species data
#-------------------------------------------------------------------------------

species(name='OH',
        atoms='H:1 O:1',
        thermo=(NASA([10.00, 984.14],
                     [ 3.49686242E+00,  1.83973160E-04, -9.97634499E-07,
                       1.56942783E-09, -6.10128175E-13,  3.41673934E+03,
                       1.48093120E+00]),
                NASA([984.14, 3000.00],
                     [ 3.45221464E+00, -2.95124034E-04,  7.39418622E-07,
                      -2.89309866E-10,  3.53041498E-14,  3.45751599E+03,
                       1.85813897E+00])))

species(name='bQOOH[O]',
        atoms='C:4 H:9 O:3',
        thermo=(NASA([10.00, 338.69],
                     [ 3.60915854E+00,  3.39069566E-02,  2.22227265E-04,
                      -8.23527342E-07,  8.56246333E-10, -2.24884935E+04,
                       1.23284605E+01]),
                NASA([338.69, 3000.00],
                     [ 5.03198881E+00,  5.46235886E-02, -3.56935806E-05,
                       1.12371751E-08, -1.35390171E-12, -2.28000763E+04,
                       3.82760723E+00])))

species(name='acetone',
        atoms='C:3 H:6 O:1',
        thermo=(NASA([10.00, 414.35],
                     [ 3.73496166E+00,  3.05743218E-02, -1.26253585E-04,
                       3.66080978E-07, -3.31430437E-10, -2.75232936E+04,
                       8.24936012E+00]),
                NASA([414.35, 3000.00],
                     [ 1.70010292E-01,  3.28431468E-02, -1.80960132E-05,
                       4.82960690E-09, -5.02388538E-13, -2.69519105E+04,
                       2.56372653E+01])))

species(name='H2O',
        atoms='H:2 O:1',
        thermo=(NASA([10.00, 773.84],
                     [ 4.00473541E+00, -2.39729134E-04,  8.11862955E-07,
                       1.47891862E-09, -1.19783539E-12, -3.03533807E+04,
                      -9.96254147E-02]),
                NASA([773.84, 3000.00],
                     [ 3.52133374E+00,  1.05377009E-03,  6.40722099E-07,
                      -3.86240235E-10,  5.49243294E-14, -3.02424794E+04,
                       2.34173094E+00])))

species(name='balkoxyketone',
        atoms='C:4 H:7 O:2',
        thermo=(NASA([10.00, 269.93],
                     [ 3.81931151E+00,  1.68519318E-02,  2.42742224E-04,
                      -9.64821161E-07,  1.18509335E-09, -2.17148409E+04,
                       1.20521854E+01]),
                NASA([269.93, 3000.00],
                     [ 3.57555944E+00,  4.28868089E-02, -2.65390705E-05,
                       7.99659117E-09, -9.32983470E-13, -2.17833691E+04,
                       1.13957990E+01])))

species(name='ibutenol',
        atoms='C:4 H:8 O:1',
        thermo=(NASA([10.00, 135.97],
                     [ 3.95714996E+00,  5.72646980E-03,  4.63611760E-04,
                      -3.04137514E-06,  6.85019471E-09, -2.31458522E+04,
                       8.21931848E+00]),
                NASA([135.97, 3000.00],
                     [ 3.32467612E+00,  3.69033556E-02, -1.89960416E-05,
                       4.73417677E-09, -4.59705291E-13, -2.31402735E+04,
                       9.58133237E+00])))

species(name='trisub_epoxy',
        atoms='C:4 H:8 O:2',
        thermo=(NASA([10.00, 209.19],
                     [ 3.75295042E+00,  2.37546930E-02,  1.26610110E-04,
                      -4.78364365E-07,  5.79468168E-10, -4.20884568E+04,
                       1.12739684E+01]),
                NASA([209.19, 3000.00],
                     [ 2.64185254E+00,  4.50006531E-02, -2.57361066E-05,
                       7.15266054E-09, -7.72980731E-13, -4.20419713E+04,
                       1.48960343E+01])))

species(name='bQOOHg',
        atoms='C:4 H:9 O:3',
        thermo=(NASA([10.00, 441.09],
                     [ 3.56595280E+00,  3.36073467E-02,  2.03462772E-04,
                      -5.98977617E-07,  4.83271168E-10, -2.46438763E+04,
                       1.33537891E+01]),
                NASA([441.09, 3000.00],
                     [ 6.09031192E+00,  5.80517622E-02, -4.06392697E-05,
                       1.32574026E-08, -1.62501077E-12, -2.53270617E+04,
                      -1.97849715E+00])))

species(name='CH2O',
        atoms='C:1 H:2 O:1',
        thermo=(NASA([10.00, 601.31],
                     [ 4.03190845E+00, -1.93233367E-03,  8.89743345E-06,
                       2.98105926E-09, -7.90813886E-12, -1.42276270E+04,
                       3.47574660E+00]),
                NASA([601.31, 3000.00],
                     [ 1.40134195E+00,  9.48858016E-03, -4.43088317E-06,
                       9.48452194E-10, -7.43790219E-14, -1.38013869E+04,
                       1.57423780E+01])))

species(name='galkene',
        atoms='C:4 H:8 O:1',
        thermo=(NASA([10.00, 383.47],
                     [ 3.84035604E+00,  1.20378740E-02,  1.87486319E-04,
                      -5.44759148E-07,  4.80711015E-10, -1.84401464E+04,
                       1.02570291E+01]),
                NASA([383.47, 3000.00],
                     [ 4.00413385E+00,  3.79025144E-02, -2.15435710E-05,
                       6.15213311E-09, -6.97446345E-13, -1.86554358E+04,
                       6.98052628E+00])))

species(name='O2',
        atoms='O:2',
        thermo=(NASA([10.00, 605.96],
                     [ 3.50743498E+00, -4.43860349E-04,  1.45938058E-06,
                       1.61509333E-09, -2.32050052E-12, -9.24756224E+02,
                       4.72183634E+00]),
                NASA([605.96, 3000.00],
                     [ 2.87462882E+00,  2.17840991E-03, -1.18262921E-06,
                       2.86910493E-10, -2.53297146E-14, -8.19517838E+02,
                       7.69331810E+00])))

species(name='bR',
        atoms='C:4 H:9 O:1',
        thermo=(NASA([10.00, 483.43],
                     [ 3.38164846E+00,  5.97142637E-02, -1.58320095E-04,
                       3.04908893E-07, -2.13091806E-10, -1.32969780E+04,
                       1.09226843E+01]),
                NASA([483.43, 3000.00],
                     [ 2.33428824E+00,  4.22094427E-02, -2.28029290E-05,
                       6.04614564E-09, -6.30240159E-13, -1.28898960E+04,
                       1.83772893E+01])))

species(name='bQOOHa',
        atoms='C:4 H:9 O:3',
        thermo=(NASA([10.00, 390.53],
                     [ 3.54969236E+00,  3.76592474E-02,  1.76622653E-04,
                      -5.98063750E-07,  5.45069236E-10, -2.57373795E+04,
                       1.31518761E+01]),
                NASA([390.53, 3000.00],
                     [ 5.33564209E+00,  5.64935715E-02, -3.83214298E-05,
                       1.22990604E-08, -1.49549987E-12, -2.61599894E+04,
                       2.59015836E+00])))

species(name='bRO2',
        atoms='C:4 H:9 O:3',
        thermo=(NASA([10.00, 461.39],
                     [ 3.53964713E+00,  3.88723795E-02,  9.57420148E-05,
                      -2.80380499E-07,  2.09647462E-10, -3.31231580E+04,
                       1.18803618E+01]),
                NASA([461.39, 3000.00],
                     [ 3.47201723E+00,  6.00510247E-02, -4.00567321E-05,
                       1.25663813E-08, -1.49496682E-12, -3.33361047E+04,
                       9.77903975E+00])))

species(name='disub_epoxy',
        atoms='C:4 H:8 O:2',
        thermo=(NASA([10.00, 549.41],
                     [ 3.89863211E+00,  5.97532637E-03,  1.66685676E-04,
                      -3.10743768E-07,  1.78330192E-10, -3.54837993E+04,
                       1.13847308E+01]),
                NASA([549.41, 3000.00],
                     [-6.40277648E-01,  6.05960003E-02, -4.13427220E-05,
                       1.31555461E-08, -1.57685017E-12, -3.53106824E+04,
                       2.76005436E+01])))

species(name='HO2',
        atoms='H:1 O:2',
        thermo=(NASA([10.00, 891.11],
                     [ 4.02887004E+00, -1.75769289E-03,  1.08726004E-05,
                      -1.13812972E-08,  3.90113097E-12,  4.95165001E+02,
                       4.69302008E+00]),
                NASA([891.11, 3000.00],
                     [ 3.06571044E+00,  4.28505005E-03, -2.19325920E-06,
                       5.58882699E-10, -5.61246669E-14,  5.98557610E+02,
                       8.84564156E+00])))

#-------------------------------------------------------------------------------
# Reaction data
#-------------------------------------------------------------------------------

# Reaction 1
chebyshev_reaction('bQOOHg (+ M) <=> bRO2 (+ M)',
                   Tmin=180.0, Tmax=1500.0,
                   Pmin=(0.01, 'atm'), Pmax=(98.692, 'atm'),
                   coeffs=[[-4.36100e+00,  1.18100e+00, -1.15300e-01, -8.64600e-04,  4.99600e-03, -5.49700e-04, -5.71900e-04,  5.94100e-05],
                           [ 3.93200e+00,  1.92200e+00, -1.21000e-01, -8.20600e-03,  4.91500e-03, -1.19600e-04, -6.93100e-04, -3.54800e-05],
                           [-1.51100e+00,  9.72500e-01,  7.50500e-02, -8.89600e-03, -6.16700e-03,  1.21300e-03,  2.62700e-04, -2.36400e-04],
                           [-1.65600e+00,  1.83600e-01,  1.54600e-01,  1.04700e-02, -1.14500e-02,  3.98400e-05,  9.17500e-04, -1.08400e-04],
                           [-1.19600e+00, -1.44100e-01,  8.86300e-02,  2.98300e-02, -4.65800e-03, -2.65300e-03,  5.60500e-04,  2.67600e-04],
                           [-6.28000e-01, -1.53800e-01, -8.46200e-03,  2.76500e-02,  6.29700e-03, -3.06300e-03, -4.90300e-04,  3.83700e-04],
                           [-2.08600e-01, -8.19300e-02, -4.89500e-02,  9.47100e-03,  1.03600e-02, -4.19300e-04, -1.05600e-03,  2.18400e-05],
                           [-7.97300e-02, -3.07700e-02, -3.55500e-02, -6.02200e-03,  6.26600e-03,  2.22500e-03, -6.18000e-04, -4.02600e-04],
                           [-2.71700e-02, -3.01500e-03, -8.01900e-03, -9.75100e-03,  3.37000e-04,  2.42300e-03,  1.51100e-04, -4.21100e-04],
                           [-1.65200e-02,  7.94400e-03,  9.18100e-03, -4.79100e-03, -2.61200e-03,  7.42300e-04,  4.63900e-04, -8.24200e-05]])

# Reaction 2
chebyshev_reaction('bQOOHa (+ M) <=> bRO2 (+ M)',
                   Tmin=180.0, Tmax=1500.0,
                   Pmin=(0.01, 'atm'), Pmax=(98.692, 'atm'),
                   coeffs=[[-1.66400e+00,  2.95200e+00, -2.80500e-01, -9.70400e-02,  4.07900e-02,  1.33500e-02, -7.21200e-03, -2.11900e-03],
                           [-1.89900e+00, -5.26700e-01,  4.94100e-01,  1.37100e-01, -4.76600e-02, -1.35600e-02,  7.92200e-03,  1.13100e-03],
                           [-2.74600e+00, -4.39200e-02, -4.27200e-02,  3.44000e-02,  1.46900e-02, -3.16800e-03, -1.52900e-03,  9.89700e-04],
                           [-1.16200e+00,  6.83400e-02, -6.34800e-02, -1.95800e-02,  1.64900e-03,  1.82300e-03,  7.23500e-06,  1.23600e-04],
                           [-5.09400e-01,  8.35800e-02, -1.19500e-02, -1.37400e-02, -1.02800e-03,  1.47700e-03,  3.12000e-05, -3.17700e-04],
                           [-2.38900e-01, -7.09500e-05, -6.80500e-04,  4.35400e-03,  2.83000e-03,  8.80700e-04,  1.22100e-05, -1.53100e-04],
                           [-1.91200e-01, -2.01500e-02, -2.05400e-03,  1.02000e-04,  2.46100e-03,  1.73900e-03,  2.91800e-04, -1.69400e-04],
                           [-1.08500e-01, -3.91200e-02, -1.83700e-03,  1.18200e-03, -5.91100e-07,  2.21000e-04,  2.57400e-04,  6.14900e-05],
                           [-8.67000e-02, -1.70000e-02,  1.26400e-03, -1.32700e-03, -6.48800e-05,  2.39000e-04, -2.30900e-05, -8.05300e-05],
                           [-4.58400e-04, -3.98600e-02, -4.10400e-03,  6.09800e-03,  4.04700e-04, -8.58600e-04,  2.85900e-06,  2.19200e-04]])

# Reaction 3
chebyshev_reaction('bQOOH[O] (+ M) <=> bRO2 (+ M)',
                   Tmin=180.0, Tmax=1500.0,
                   Pmin=(0.01, 'atm'), Pmax=(98.692, 'atm'),
                   coeffs=[[ 5.03300e+00,  1.97500e+00, -5.93800e-02, -1.99900e-02, -5.15900e-03, -2.89900e-04,  5.30100e-04,  3.03500e-04],
                           [-5.83200e+00,  2.89300e-01,  7.06600e-02,  3.02800e-02,  7.27000e-03,  6.48300e-04, -7.10400e-04, -4.83800e-04],
                           [-2.77400e+00,  2.63200e-02, -5.25900e-02, -1.47500e-02, -1.99900e-03,  1.25800e-03,  1.04700e-03,  3.51700e-04],
                           [-1.27300e+00,  1.00500e-01,  5.89600e-03,  8.21300e-04, -1.15600e-03, -8.65100e-04, -3.92200e-04, -1.02300e-04],
                           [-6.73400e-01,  5.24400e-02,  8.43900e-03,  4.47400e-03,  2.62700e-03,  1.10800e-03,  2.04100e-04, -1.14800e-04],
                           [-3.63600e-01,  2.37100e-03,  2.53000e-04, -9.19800e-04,  1.72600e-04,  4.40500e-04,  3.14600e-04,  1.14000e-04],
                           [-2.25500e-01, -1.14600e-02,  6.46700e-03,  1.99800e-03,  8.61100e-04,  2.43200e-04, -5.55900e-05, -1.00400e-04],
                           [-1.28500e-01, -2.38000e-02,  6.32100e-03,  3.09500e-03,  1.02900e-03,  3.21000e-04,  4.55900e-05, -4.44700e-05],
                           [-4.28900e-02, -4.44700e-02, -5.64400e-03,  4.42200e-04,  9.31900e-04,  6.03800e-04,  2.18200e-04,  4.01800e-05],
                           [-6.23500e-02, -2.28100e-02,  8.62400e-04,  2.88500e-03,  7.35800e-04,  1.04400e-05, -8.47900e-05, -5.34300e-05]])

# Reaction 4
chebyshev_reaction('O2 + bR (+ M) <=> bRO2 (+ M)',
                   Tmin=180.0, Tmax=1500.0,
                   Pmin=(0.01, 'atm'), Pmax=(98.692, 'atm'),
                   coeffs=[[ 1.00800e+01,  4.84100e-01, -6.99000e-02,  6.86700e-03, -1.34100e-03,  2.58700e-04, -6.58100e-05,  1.72500e-05],
                           [-1.19900e+00,  8.64100e-01, -1.03300e-01,  4.35500e-03, -3.26900e-04, -1.01000e-04,  2.51100e-05, -1.38600e-06],
                           [-8.82200e-01,  6.26900e-01, -3.31300e-02, -7.95100e-03,  1.27600e-03, -2.54400e-04,  2.56600e-05,  7.93800e-06],
                           [-6.68200e-01,  3.66700e-01,  2.52700e-02, -1.15400e-02,  3.65700e-04,  5.86800e-05, -2.66400e-05,  1.30600e-05],
                           [-4.61200e-01,  1.61800e-01,  4.99100e-02, -5.78800e-03, -1.45400e-03,  2.12700e-04,  3.55500e-06, -2.38600e-06],
                           [-2.98700e-01,  3.46200e-02,  4.61000e-02,  2.47500e-03, -1.99400e-03, -4.87800e-05,  6.84000e-05, -1.08600e-05],
                           [-1.83800e-01, -2.84200e-02,  2.94100e-02,  7.60400e-03, -9.38700e-04, -3.74400e-04,  5.05400e-05, -9.86300e-07],
                           [-1.07000e-01, -5.07500e-02,  1.21600e-02,  8.34100e-03,  6.42900e-04, -4.07600e-04, -4.70300e-05,  3.35600e-06],
                           [-5.75600e-02, -5.12600e-02, -4.47700e-04,  6.34500e-03,  1.69200e-03, -1.41100e-04, -1.31300e-04, -1.41200e-05],
                           [-2.68600e-02, -4.18800e-02, -7.67800e-03,  3.52000e-03,  1.93700e-03,  1.78700e-04, -1.34400e-04, -4.08300e-05]])
#  bRO2(+M) <=> bQOOHg(+M)                             1.000e+00 0.000     0.000
#      TCHEB/ 180.000   1500.000 /
#      PCHEB/ 0.010     98.692   /
#      CHEB/ 10 8/
#      CHEB/ -1.487e+01   1.181e+00    -1.153e-01   -8.646e-04   4.996e-03   /
#      CHEB/ -5.497e-04   -5.719e-04   5.941e-05    1.333e+01    1.922e+00   /
#      CHEB/ -1.210e-01   -8.206e-03   4.915e-03    -1.196e-04   -6.931e-04  /
#      CHEB/ -3.548e-05   -1.366e+00   9.725e-01    7.505e-02    -8.896e-03  /
#      CHEB/ -6.167e-03   1.213e-03    2.627e-04    -2.364e-04   -1.619e+00  /
#      CHEB/ 1.836e-01    1.546e-01    1.047e-02    -1.145e-02   3.984e-05   /
#      CHEB/ 9.175e-04    -1.084e-04   -1.190e+00   -1.441e-01   8.863e-02   /
#      CHEB/ 2.983e-02    -4.658e-03   -2.653e-03   5.605e-04    2.676e-04   /
#      CHEB/ -6.281e-01   -1.538e-01   -8.462e-03   2.765e-02    6.297e-03   /
#      CHEB/ -3.063e-03   -4.903e-04   3.837e-04    -2.091e-01   -8.193e-02  /
#      CHEB/ -4.895e-02   9.471e-03    1.036e-02    -4.193e-04   -1.056e-03  /
#      CHEB/ 2.184e-05    -8.018e-02   -3.077e-02   -3.555e-02   -6.022e-03  /
#      CHEB/ 6.266e-03    2.225e-03    -6.180e-04   -4.026e-04   -2.749e-02  /
#      CHEB/ -3.015e-03   -8.019e-03   -9.751e-03   3.370e-04    2.423e-03   /
#      CHEB/ 1.511e-04    -4.211e-04   -1.670e-02   7.944e-03    9.181e-03   /
#      CHEB/ -4.791e-03   -2.612e-03   7.423e-04    4.639e-04    -8.242e-05  /

# Reaction 5
chebyshev_reaction('bQOOHa (+ M) <=> bQOOHg (+ M)',
                   Tmin=180.0, Tmax=1500.0,
                   Pmin=(0.01, 'atm'), Pmax=(98.692, 'atm'),
                   coeffs=[[-1.74400e+01,  2.91000e+00, -4.38300e-02, -5.60700e-02,  1.30800e-02, -2.25200e-03, -6.48900e-03,  7.20200e-04],
                           [ 4.59000e+00,  7.22300e-01,  1.87400e-01,  1.53500e-01,  8.27300e-03,  1.50400e-03,  3.02100e-03, -3.58800e-03],
                           [-1.92400e+00,  4.69100e-01, -1.74500e-01, -5.40700e-02, -6.72200e-03,  8.75300e-04,  3.35900e-03,  3.27200e-03],
                           [-1.70600e+00,  1.03300e-01,  3.69600e-02, -3.67400e-02, -1.93000e-02, -9.40800e-04,  4.28600e-04,  2.11900e-04],
                           [-1.08900e+00, -2.82900e-02,  1.18900e-01,  3.37400e-02, -1.87200e-03, -3.16700e-03, -1.73300e-03, -1.15800e-03],
                           [-5.50100e-01, -9.58900e-02,  2.47600e-02,  4.27700e-02,  1.13300e-02, -2.25100e-03, -7.61300e-04, -2.36400e-05],
                           [-1.97200e-01, -8.48500e-02, -5.17600e-02,  6.47600e-03,  1.19800e-02,  2.01000e-03,  1.31100e-04,  1.98300e-04],
                           [-8.16200e-02, -4.78900e-02, -4.05300e-02, -9.24100e-03,  4.39300e-03,  2.16800e-03, -2.10600e-05, -3.36000e-05],
                           [-2.04500e-02,  6.12500e-03, -5.23600e-03, -1.23600e-02, -5.98600e-04,  2.06400e-03, -8.69900e-05, -4.74900e-04],
                           [-9.70600e-03,  6.59300e-04,  1.05300e-02,  1.57600e-04, -2.90100e-03, -2.63800e-04,  3.79700e-04,  5.44100e-05]])

# Reaction 6
chebyshev_reaction('bQOOH[O] (+ M) <=> bQOOHg (+ M)',
                   Tmin=180.0, Tmax=1500.0,
                   Pmin=(0.01, 'atm'), Pmax=(98.692, 'atm'),
                   coeffs=[[-9.66500e+00,  1.91500e+00,  7.83600e-02, -5.77000e-02, -5.26400e-02, -9.36400e-03,  5.92000e-03,  3.23000e-03],
                           [ 3.67700e-02,  1.55200e+00, -9.00300e-02,  1.26800e-01,  5.27800e-02, -1.39300e-02, -1.43300e-02, -1.09200e-03],
                           [-2.30700e+00,  5.28600e-01, -1.59500e-01, -6.65900e-02,  2.30000e-02,  2.66600e-02,  3.82100e-03, -4.75300e-03],
                           [-1.94400e+00,  6.03300e-02,  7.29300e-02, -3.25500e-02, -1.69800e-02,  7.42000e-03,  6.33300e-03,  6.22800e-04],
                           [-1.20200e+00, -8.07900e-02,  1.04100e-01,  1.71900e-02, -1.98000e-02, -7.50700e-03,  2.66200e-03,  2.76400e-03],
                           [-5.65000e-01, -9.26300e-02,  1.35100e-02,  2.71400e-02, -1.97000e-03, -9.15400e-03, -1.95300e-03,  1.36100e-03],
                           [-1.96200e-01, -7.13800e-02, -3.28800e-02,  1.83900e-02,  1.22300e-02, -2.45000e-03, -3.26500e-03, -8.54500e-04],
                           [-8.21400e-02, -1.98100e-02, -2.50500e-02,  7.98500e-04,  1.05100e-02,  2.93900e-03, -1.59300e-03, -1.27300e-03],
                           [ 1.31900e-02, -8.94800e-03, -7.49500e-03, -7.65800e-03,  2.24800e-03,  3.75600e-03,  6.42600e-04, -6.52900e-04],
                           [-5.34400e-02,  2.81500e-02,  1.46700e-02, -3.01300e-03, -1.18400e-03,  1.31600e-03,  5.53900e-04, -1.14400e-05]])

# Reaction 7
chebyshev_reaction('O2 + bR (+ M) <=> bQOOHg (+ M)',
                   Tmin=180.0, Tmax=1500.0,
                   Pmin=(0.01, 'atm'), Pmax=(98.692, 'atm'),
                   coeffs=[[ 9.92100e-01,  2.96100e-02, -3.83100e-01,  4.43000e-02,  2.66600e-03, -4.64700e-03,  1.52700e-03, -4.16000e-05],
                           [ 7.52000e-01,  2.05200e+00,  8.69800e-02, -1.24600e-01,  1.39300e-02,  7.44000e-03, -3.45600e-03,  2.89800e-04],
                           [-9.74800e-01,  6.67800e-01,  2.74700e-01, -2.99000e-02, -3.10600e-02,  6.88400e-03,  2.52800e-03, -1.29300e-03],
                           [-1.12600e+00,  1.44300e-02,  1.78600e-01,  4.07400e-02, -2.01400e-02, -5.90300e-03,  3.20200e-03,  5.07100e-04],
                           [-6.86800e-01, -1.96700e-01,  5.08000e-02,  4.74000e-02,  1.45800e-03, -7.09600e-03, -3.00500e-04,  1.12000e-03],
                           [-3.22800e-01, -1.96100e-01, -2.62400e-02,  2.64300e-02,  1.00000e-02, -1.84200e-03, -1.67700e-03,  2.20500e-04],
                           [-6.85800e-02, -1.05600e-01, -5.21900e-02,  4.65300e-03,  8.56600e-03,  1.80400e-03, -8.34300e-04, -4.40700e-04],
                           [ 4.63000e-03, -1.27500e-02, -4.01700e-02, -8.72000e-03,  3.67500e-03,  2.52600e-03,  1.66900e-04, -4.30100e-04],
                           [ 3.23900e-02,  4.20400e-02, -1.36200e-02, -1.11100e-02, -7.88200e-04,  1.37200e-03,  5.63300e-04, -1.28100e-04],
                           [ 2.67800e-03,  4.60100e-02,  1.06600e-02, -5.86200e-03, -3.24800e-03, -1.79700e-04,  4.22800e-04,  1.45200e-04]])
#  bRO2(+M) <=> bQOOHa(+M)                             1.000e+00 0.000     0.000
#      TCHEB/ 180.000   1500.000 /
#      PCHEB/ 0.010     98.692   /
#      CHEB/ 10 8/
#      CHEB/ -1.079e+01   2.952e+00    -2.805e-01   -9.704e-02   4.079e-02   /
#      CHEB/ 1.335e-02    -7.212e-03   -2.119e-03   6.187e+00    -5.267e-01  /
#      CHEB/ 4.941e-01    1.371e-01    -4.766e-02   -1.356e-02   7.922e-03   /
#      CHEB/ 1.131e-03    -2.691e+00   -4.392e-02   -4.272e-02   3.440e-02   /
#      CHEB/ 1.469e-02    -3.168e-03   -1.529e-03   9.897e-04    -1.160e+00  /
#      CHEB/ 6.834e-02    -6.348e-02   -1.958e-02   1.649e-03    1.823e-03   /
#      CHEB/ 7.235e-06    1.236e-04    -5.143e-01   8.358e-02    -1.195e-02  /
#      CHEB/ -1.374e-02   -1.028e-03   1.477e-03    3.120e-05    -3.177e-04  /
#      CHEB/ -2.416e-01   -7.095e-05   -6.805e-04   4.354e-03    2.830e-03   /
#      CHEB/ 8.807e-04    1.221e-05    -1.531e-04   -1.925e-01   -2.015e-02  /
#      CHEB/ -2.054e-03   1.020e-04    2.461e-03    1.739e-03    2.918e-04   /
#      CHEB/ -1.694e-04   -1.092e-01   -3.912e-02   -1.837e-03   1.182e-03   /
#      CHEB/ -5.911e-07   2.210e-04    2.574e-04    6.149e-05    -8.705e-02  /
#      CHEB/ -1.700e-02   1.264e-03    -1.327e-03   -6.488e-05   2.390e-04   /
#      CHEB/ -2.309e-05   -8.053e-05   -5.778e-04   -3.986e-02   -4.104e-03  /
#      CHEB/ 6.098e-03    4.047e-04    -8.586e-04   2.859e-06    2.192e-04   /
#  bQOOHg(+M) <=> bQOOHa(+M)                           1.000e+00 0.000     0.000
#      TCHEB/ 180.000   1500.000 /
#      PCHEB/ 0.010     98.692   /
#      CHEB/ 10 8/
#      CHEB/ -1.606e+01   2.910e+00    -4.383e-02   -5.607e-02   1.308e-02   /
#      CHEB/ -2.252e-03   -6.489e-03   7.202e-04    3.281e+00    7.223e-01   /
#      CHEB/ 1.874e-01    1.535e-01    8.273e-03    1.504e-03    3.021e-03   /
#      CHEB/ -3.588e-03   -2.015e+00   4.691e-01    -1.745e-01   -5.407e-02  /
#      CHEB/ -6.722e-03   8.753e-04    3.359e-03    3.272e-03    -1.742e+00  /
#      CHEB/ 1.033e-01    3.696e-02    -3.674e-02   -1.930e-02   -9.408e-04  /
#      CHEB/ 4.286e-04    2.119e-04    -1.100e+00   -2.829e-02   1.189e-01   /
#      CHEB/ 3.374e-02    -1.872e-03   -3.167e-03   -1.733e-03   -1.158e-03  /
#      CHEB/ -5.528e-01   -9.589e-02   2.476e-02    4.277e-02    1.133e-02   /
#      CHEB/ -2.251e-03   -7.613e-04   -2.364e-05   -1.979e-01   -8.485e-02  /
#      CHEB/ -5.176e-02   6.476e-03    1.198e-02    2.010e-03    1.311e-04   /
#      CHEB/ 1.983e-04    -8.189e-02   -4.789e-02   -4.053e-02   -9.241e-03  /
#      CHEB/ 4.393e-03    2.168e-03    -2.106e-05   -3.360e-05   -2.048e-02  /
#      CHEB/ 6.125e-03    -5.236e-03   -1.236e-02   -5.986e-04   2.064e-03   /
#      CHEB/ -8.699e-05   -4.749e-04   -9.639e-03   6.593e-04    1.053e-02   /
#      CHEB/ 1.576e-04    -2.901e-03   -2.638e-04   3.797e-04    5.441e-05   /

# Reaction 8
chebyshev_reaction('bQOOH[O] (+ M) <=> bQOOHa (+ M)',
                   Tmin=180.0, Tmax=1500.0,
                   Pmin=(0.01, 'atm'), Pmax=(98.692, 'atm'),
                   coeffs=[[-6.97100e+00,  3.40100e+00, -1.43700e-01, -1.04500e-01,  1.27000e-02,  5.43900e-03, -5.53800e-03, -8.40900e-04],
                           [-6.27600e+00, -5.87600e-01,  4.85700e-01,  1.92500e-01, -1.65300e-02, -9.49700e-03,  4.39400e-03, -6.00400e-04],
                           [-3.24100e+00, -3.61100e-01, -2.42100e-01, -1.71200e-02,  1.48000e-02,  3.71500e-03,  1.59500e-03,  1.66400e-03],
                           [-1.37300e+00,  5.37700e-02, -1.08400e-01, -3.78700e-02, -4.81700e-03,  8.35300e-05, -3.30200e-04,  2.93100e-04],
                           [-6.22600e-01,  1.39000e-01,  2.71700e-03, -6.82800e-03,  2.57000e-04,  9.47100e-04, -6.13100e-04, -6.97300e-04],
                           [-3.14600e-01,  4.96200e-02,  1.51500e-02,  7.17200e-03,  2.68300e-03,  8.12500e-04,  3.27600e-05, -2.35900e-04],
                           [-2.21500e-01,  6.02000e-03,  1.12000e-02,  3.25100e-03,  2.56200e-03,  1.59600e-03,  3.18700e-04, -1.93800e-04],
                           [-1.35000e-01, -2.66100e-02,  6.46800e-03,  2.61900e-03, -1.26400e-04,  2.91500e-04,  4.34800e-04,  1.36600e-04],
                           [-4.55000e-02, -3.57000e-02, -3.72700e-03, -1.93700e-03,  1.33400e-04,  5.13700e-04,  2.18600e-04,  5.88000e-05],
                           [-5.64300e-02, -2.87000e-02,  1.21800e-03,  7.20300e-03,  3.42200e-04, -8.89000e-04, -1.04200e-04,  1.38900e-04]])

# Reaction 9
chebyshev_reaction('O2 + bR (+ M) <=> bQOOHa (+ M)',
                   Tmin=180.0, Tmax=1500.0,
                   Pmin=(0.01, 'atm'), Pmax=(98.692, 'atm'),
                   coeffs=[[-1.46900e+00,  2.47800e+00,  1.95000e-01,  5.30200e-02,  4.13200e-02, -1.99300e-03, -1.53400e-02, -5.60100e-03],
                           [-2.05400e+00, -7.15600e-01, -5.53300e-02,  2.37400e-02, -4.27300e-02,  3.50800e-03,  1.75900e-02,  5.33400e-03],
                           [-1.34200e+00,  1.88700e-01, -2.27900e-01, -2.80700e-02,  8.27300e-03, -3.22400e-03, -1.05400e-03,  1.32400e-03],
                           [-7.13100e-01,  3.47000e-01, -4.31800e-02, -3.62700e-02,  6.43300e-04, -7.81600e-04, -2.14700e-03, -8.03600e-04],
                           [-3.76800e-01,  2.46300e-01,  6.50900e-02, -1.13500e-02, -6.34800e-06,  1.00400e-03, -8.08500e-04, -8.11100e-04],
                           [-2.33100e-01,  6.71700e-02,  6.73600e-02,  9.76200e-03,  1.12900e-03,  8.03300e-04,  3.06200e-04, -9.17000e-05],
                           [-1.64600e-01, -2.30800e-02,  3.55000e-02,  6.60800e-03,  5.95200e-04,  1.02900e-03,  5.63300e-04,  2.31900e-05],
                           [-1.04700e-01, -6.51500e-02,  1.20800e-02,  6.68500e-03, -3.60100e-04, -3.06000e-04,  4.42700e-04,  2.32600e-04],
                           [-5.12600e-02, -4.64600e-02,  1.75000e-03,  3.01700e-03,  9.00600e-04, -2.55600e-04, -2.59400e-04, -7.31000e-05],
                           [-2.04200e-02, -5.24700e-02, -7.04400e-03,  7.74400e-03,  1.54600e-03, -6.94200e-04, -6.85800e-05,  2.04700e-04]])
#  bRO2(+M) <=> bQOOH[O](+M)                           1.000e+00 0.000     0.000
#      TCHEB/ 180.000   1500.000 /
#      PCHEB/ 0.010     98.692   /
#      CHEB/ 10 8/
#      CHEB/ -8.897e+00   1.975e+00    -5.938e-02   -1.999e-02   -5.159e-03  /
#      CHEB/ -2.899e-04   5.301e-04    3.035e-04    5.580e+00    2.893e-01   /
#      CHEB/ 7.066e-02    3.028e-02    7.270e-03    6.483e-04    -7.104e-04  /
#      CHEB/ -4.838e-04   -2.780e+00   2.632e-02    -5.259e-02   -1.475e-02  /
#      CHEB/ -1.999e-03   1.258e-03    1.047e-03    3.517e-04    -1.294e+00  /
#      CHEB/ 1.005e-01    5.896e-03    8.213e-04    -1.156e-03   -8.651e-04  /
#      CHEB/ -3.922e-04   -1.023e-04   -6.842e-01   5.244e-02    8.439e-03   /
#      CHEB/ 4.474e-03    2.627e-03    1.108e-03    2.041e-04    -1.148e-04  /
#      CHEB/ -3.675e-01   2.371e-03    2.530e-04    -9.198e-04   1.726e-04   /
#      CHEB/ 4.405e-04    3.146e-04    1.140e-04    -2.270e-01   -1.146e-02  /
#      CHEB/ 6.467e-03    1.998e-03    8.611e-04    2.432e-04    -5.559e-05  /
#      CHEB/ -1.004e-04   -1.292e-01   -2.380e-02   6.321e-03    3.095e-03   /
#      CHEB/ 1.029e-03    3.210e-04    4.559e-05    -4.447e-05   -4.307e-02  /
#      CHEB/ -4.447e-02   -5.644e-03   4.422e-04    9.319e-04    6.038e-04   /
#      CHEB/ 2.182e-04    4.018e-05    -6.234e-02   -2.281e-02   8.624e-04   /
#      CHEB/ 2.885e-03    7.358e-04    1.044e-05    -8.479e-05   -5.343e-05  /
#  bQOOHg(+M) <=> bQOOH[O](+M)                         1.000e+00 0.000     0.000
#      TCHEB/ 180.000   1500.000 /
#      PCHEB/ 0.010     98.692   /
#      CHEB/ 10 8/
#      CHEB/ -1.309e+01   1.915e+00    7.836e-02    -5.770e-02   -5.264e-02  /
#      CHEB/ -9.364e-03   5.920e-03    3.230e-03    2.054e+00    1.552e+00   /
#      CHEB/ -9.003e-02   1.268e-01    5.278e-02    -1.393e-02   -1.433e-02  /
#      CHEB/ -1.092e-03   -2.458e+00   5.286e-01    -1.595e-01   -6.659e-02  /
#      CHEB/ 2.300e-02    2.666e-02    3.821e-03    -4.753e-03   -2.002e+00  /