units(length='cm', time='s', quantity='mol', act_energy='kcal/mol')

ideal_gas(name='gas',
          elements="H D T C Ci O Oi N Ne Ar He Si S F Cl Br I X",
          species="""OH             bQOOH[O]       acetone
                     H2O            balkoxyketone  ibutenol
                     trisub_epoxy   bQOOHg         CH2O
                     galkene        O2             bR
                     bQOOHa         bRO2           disub_epoxy
                     HO2""",
          reactions='all',
          initial_state=state(temperature=300.0, pressure=OneAtm))

#-------------------------------------------------------------------------------
# Element data
#-------------------------------------------------------------------------------

element(symbol='Ci', atomic_mass=13.003)
element(symbol='D', atomic_mass=2.014)
element(symbol='Oi', atomic_mass=18.0)
element(symbol='T', atomic_mass=3.016)
element(symbol='X', atomic_mass=195.083)
#-------------------------------------------------------------------------------
# Species data
#-------------------------------------------------------------------------------

species(name='OH',
        atoms='H:1 O:1',
        thermo=(NASA([10.00, 984.14],
                     [ 3.49686242E+00,  1.83973160E-04, -9.97634499E-07,
                       1.56942783E-09, -6.10128175E-13,  3.41673934E+03,
                       1.48093120E+00]),
                NASA([984.14, 3000.00],
                     [ 3.45221464E+00, -2.95124034E-04,  7.39418622E-07,
                      -2.89309866E-10,  3.53041498E-14,  3.45751599E+03,
                       1.85813897E+00])))

species(name='bQOOH[O]',
        atoms='C:4 H:9 O:3',
        thermo=(NASA([10.00, 338.69],
                     [ 3.60915854E+00,  3.39069566E-02,  2.22227265E-04,
                      -8.23527342E-07,  8.56246333E-10, -2.25502976E+04,
                       1.23284605E+01]),
                NASA([338.69, 3000.00],
                     [ 5.03198881E+00,  5.46235886E-02, -3.56935806E-05,
                       1.12371751E-08, -1.35390171E-12, -2.28618804E+04,
                       3.82760723E+00])))

species(name='acetone',
        atoms='C:3 H:6 O:1',
        thermo=(NASA([10.00, 414.35],
                     [ 3.73496166E+00,  3.05743218E-02, -1.26253585E-04,
                       3.66080978E-07, -3.31430437E-10, -2.91607490E+04,
                       8.24936012E+00]),
                NASA([414.35, 3000.00],
                     [ 1.70010292E-01,  3.28431468E-02, -1.80960132E-05,
                       4.82960690E-09, -5.02388538E-13, -2.85893659E+04,
                       2.56372653E+01])))

species(name='H2O',
        atoms='H:2 O:1',
        thermo=(NASA([10.00, 773.84],
                     [ 4.00473541E+00, -2.39729134E-04,  8.11862955E-07,
                       1.47891862E-09, -1.19783539E-12, -3.03533807E+04,
                      -9.96254147E-02]),
                NASA([773.84, 3000.00],
                     [ 3.52133374E+00,  1.05377009E-03,  6.40722099E-07,
                      -3.86240235E-10,  5.49243294E-14, -3.02424794E+04,
                       2.34173094E+00])))

species(name='balkoxyketone',
        atoms='C:4 H:7 O:2',
        thermo=(NASA([10.00, 269.93],
                     [ 3.81931151E+00,  1.68519318E-02,  2.42742224E-04,
                      -9.64821161E-07,  1.18509335E-09, -1.91822198E+04,
                       1.20521854E+01]),
                NASA([269.93, 3000.00],
                     [ 3.57555944E+00,  4.28868089E-02, -2.65390705E-05,
                       7.99659117E-09, -9.32983470E-13, -1.92507479E+04,
                       1.13957990E+01])))

species(name='ibutenol',
        atoms='C:4 H:8 O:1',
        thermo=(NASA([10.00, 135.97],
                     [ 3.95714996E+00,  5.72646980E-03,  4.63611760E-04,
                      -3.04137514E-06,  6.85019471E-09, -2.41986103E+04,
                       8.21931848E+00]),
                NASA([135.97, 3000.00],
                     [ 3.32467612E+00,  3.69033556E-02, -1.89960416E-05,
                       4.73417677E-09, -4.59705291E-13, -2.41930316E+04,
                       9.58133237E+00])))

species(name='trisub_epoxy',
        atoms='C:4 H:8 O:2',
        thermo=(NASA([10.00, 209.19],
                     [ 3.75295042E+00,  2.37546930E-02,  1.26610110E-04,
                      -4.78364365E-07,  5.79468168E-10, -4.17053394E+04,
                       1.12739684E+01]),
                NASA([209.19, 3000.00],
                     [ 2.64185254E+00,  4.50006531E-02, -2.57361066E-05,
                       7.15266054E-09, -7.72980731E-13, -4.16588538E+04,
                       1.48960343E+01])))

species(name='bQOOHg',
        atoms='C:4 H:9 O:3',
        thermo=(NASA([10.00, 441.09],
                     [ 3.56595280E+00,  3.36073467E-02,  2.03462772E-04,
                      -5.98977617E-07,  4.83271168E-10, -2.41639166E+04,
                       1.33537891E+01]),
                NASA([441.09, 3000.00],
                     [ 6.09031192E+00,  5.80517622E-02, -4.06392697E-05,
                       1.32574026E-08, -1.62501077E-12, -2.48471021E+04,
                      -1.97849715E+00])))

species(name='CH2O',
        atoms='C:1 H:2 O:1',
        thermo=(NASA([10.00, 601.31],
                     [ 4.03190845E+00, -1.93233367E-03,  8.89743345E-06,
                       2.98105926E-09, -7.90813886E-12, -1.42276270E+04,
                       3.47574660E+00]),
                NASA([601.31, 3000.00],
                     [ 1.40134195E+00,  9.48858016E-03, -4.43088317E-06,
                       9.48452194E-10, -7.43790219E-14, -1.38013869E+04,
                       1.57423780E+01])))

species(name='galkene',
        atoms='C:4 H:8 O:1',
        thermo=(NASA([10.00, 383.47],
                     [ 3.84035604E+00,  1.20378740E-02,  1.87486319E-04,
                      -5.44759148E-07,  4.80711015E-10, -2.02146381E+04,
                       1.02570291E+01]),
                NASA([383.47, 3000.00],
                     [ 4.00413385E+00,  3.79025144E-02, -2.15435710E-05,
                       6.15213311E-09, -6.97446345E-13, -2.04299274E+04,
                       6.98052628E+00])))

species(name='O2',
        atoms='O:2',
        thermo=(NASA([10.00, 605.96],
                     [ 3.50743498E+00, -4.43860349E-04,  1.45938058E-06,
                       1.61509333E-09, -2.32050052E-12, -9.24756224E+02,
                       4.72183634E+00]),
                NASA([605.96, 3000.00],
                     [ 2.87462882E+00,  2.17840991E-03, -1.18262921E-06,
                       2.86910493E-10, -2.53297146E-14, -8.19517838E+02,
                       7.69331810E+00])))

species(name='bR',
        atoms='C:4 H:9 O:1',
        thermo=(NASA([10.00, 483.43],
                     [ 3.38164846E+00,  5.97142637E-02, -1.58320095E-04,
                       3.04908893E-07, -2.13091806E-10, -1.28913464E+04,
                       1.09226843E+01]),
                NASA([483.43, 3000.00],
                     [ 2.33428824E+00,  4.22094427E-02, -2.28029290E-05,
                       6.04614564E-09, -6.30240159E-13, -1.24842645E+04,
                       1.83772893E+01])))

species(name='bQOOHa',
        atoms='C:4 H:9 O:3',
        thermo=(NASA([10.00, 390.53],
                     [ 3.54969236E+00,  3.76592474E-02,  1.76622653E-04,
                      -5.98063750E-07,  5.45069236E-10, -2.84332811E+04,
                       1.31518761E+01]),
                NASA([390.53, 3000.00],
                     [ 5.33564209E+00,  5.64935715E-02, -3.83214298E-05,
                       1.22990604E-08, -1.49549987E-12, -2.88558910E+04,
                       2.59015836E+00])))

species(name='bRO2',
        atoms='C:4 H:9 O:3',
        thermo=(NASA([10.00, 461.39],
                     [ 3.53964713E+00,  3.88723795E-02,  9.57420148E-05,
                      -2.80380499E-07,  2.09647462E-10, -3.30800128E+04,
                       1.18803618E+01]),
                NASA([461.39, 3000.00],
                     [ 3.47201723E+00,  6.00510247E-02, -4.00567321E-05,
                       1.25663813E-08, -1.49496682E-12, -3.32929596E+04,
                       9.77903975E+00])))

species(name='disub_epoxy',
        atoms='C:4 H:8 O:2',
        thermo=(NASA([10.00, 549.41],
                     [ 3.89863211E+00,  5.97532637E-03,  1.66685676E-04,
                      -3.10743768E-07,  1.78330192E-10, -3.72853122E+04,
                       1.13847308E+01]),
                NASA([549.41, 3000.00],
                     [-6.40277648E-01,  6.05960003E-02, -4.13427220E-05,
                       1.31555461E-08, -1.57685017E-12, -3.71121954E+04,
                       2.76005436E+01])))

species(name='HO2',
        atoms='H:1 O:2',
        thermo=(NASA([10.00, 891.11],
                     [ 4.02887004E+00, -1.75769289E-03,  1.08726004E-05,
                      -1.13812972E-08,  3.90113097E-12,  4.95165001E+02,
                       4.69302008E+00]),
                NASA([891.11, 3000.00],
                     [ 3.06571044E+00,  4.28505005E-03, -2.19325920E-06,
                       5.58882699E-10, -5.61246669E-14,  5.98557610E+02,
                       8.84564156E+00])))

#-------------------------------------------------------------------------------
# Reaction data
#-------------------------------------------------------------------------------

# Reaction 1
chebyshev_reaction('bQOOHg (+ M) <=> bRO2 (+ M)',
                   Tmin=180.0, Tmax=1500.0,
                   Pmin=(0.01, 'atm'), Pmax=(98.692, 'atm'),
                   coeffs=[[ 1.39700e+00,  7.35600e-01,  6.29000e-03, -1.14000e-02,  6.72000e-04,  9.72200e-04, -7.16700e-05, -7.05400e-05],
                           [ 1.76300e-01,  1.19900e+00,  3.89800e-02, -1.76200e-02,  7.79700e-04,  1.37000e-03, -6.03400e-05, -1.02500e-04],
                           [-2.41100e+00,  5.92700e-01,  7.48200e-02, -1.27200e-03, -6.55500e-04,  1.92600e-04,  4.41300e-05, -9.85600e-06],
                           [-1.56400e+00,  5.18400e-02,  6.24600e-02,  1.72200e-02, -4.89300e-04, -8.70800e-04,  2.86900e-05,  5.84000e-05],
                           [-9.97900e-01, -1.93600e-01,  9.94000e-03,  2.18300e-02,  2.23000e-03, -1.01900e-03, -1.27400e-04,  4.88100e-05],
                           [-5.49500e-01, -1.85300e-01, -3.17700e-02,  9.51900e-03,  4.15300e-03, -3.77400e-06, -2.13700e-04, -2.86700e-05],
                           [-2.51700e-01, -8.63800e-02, -3.47000e-02, -5.75400e-03,  2.23100e-03,  1.09800e-03,  3.38000e-06, -8.43700e-05],
                           [-1.06400e-01, -1.50400e-02, -1.30100e-02, -1.03400e-02, -1.71400e-03,  9.70000e-04,  3.56900e-04, -2.17200e-05],
                           [-3.19700e-02,  2.38100e-03,  5.61100e-03, -4.17800e-03, -3.46700e-03, -2.26000e-04,  4.05300e-04,  1.15300e-04],
                           [-1.25400e-02, -8.42000e-03,  8.10600e-03,  3.55300e-03, -1.64000e-03, -1.07400e-03,  3.54000e-05,  1.57500e-04]])

# Reaction 2
chebyshev_reaction('bQOOHa (+ M) <=> bRO2 (+ M)',
                   Tmin=180.0, Tmax=1500.0,
                   Pmin=(0.01, 'atm'), Pmax=(98.692, 'atm'),
                   coeffs=[[-3.09900e-01,  8.72400e-01, -2.67900e-02, -1.03700e-02,  1.68700e-03,  5.78300e-04, -1.59600e-04, -1.50000e-05],
                           [ 2.04700e+00,  1.37200e+00,  7.39000e-04, -1.69000e-02,  1.85100e-03,  6.76300e-04, -1.24900e-04, -2.32500e-05],
                           [-2.08500e+00,  5.90600e-01,  7.82300e-02,  8.51100e-04, -2.16900e-03, -1.27800e-04,  1.54100e-04,  3.50900e-06],
                           [-1.52900e+00, -2.58300e-02,  7.71100e-02,  2.17200e-02, -2.94100e-03, -9.14000e-04,  1.83200e-04,  2.61600e-05],
                           [-1.00100e+00, -2.39800e-01,  1.70000e-02,  2.31800e-02,  1.47100e-03, -8.60700e-04, -1.09300e-04,  1.59100e-05],
                           [-4.55400e-01, -1.83500e-01, -2.95000e-02,  6.66900e-03,  4.57100e-03,  3.54500e-04, -2.85300e-04, -4.98700e-05],
                           [-2.93700e-01, -7.22300e-02, -3.35500e-02, -7.41800e-03,  2.17600e-03,  1.31500e-03, -1.60400e-05, -8.04000e-05],
                           [-8.85700e-02, -1.50000e-02, -1.28000e-02, -9.25100e-03, -1.60700e-03,  7.14800e-04,  3.45600e-04,  1.12000e-05],
                           [-1.34600e-03, -5.20500e-03,  2.93700e-03, -2.78300e-03, -2.56600e-03, -5.08600e-04,  2.82700e-04,  1.21700e-04],
                           [-6.15600e-02, -8.39100e-03,  3.39200e-03,  3.34300e-03, -8.46900e-04, -8.75800e-04, -9.33900e-05,  9.46100e-05]])

# Reaction 3
chebyshev_reaction('bQOOH[O] (+ M) <=> bRO2 (+ M)',
                   Tmin=180.0, Tmax=1500.0,
                   Pmin=(0.01, 'atm'), Pmax=(98.692, 'atm'),
                   coeffs=[[ 5.12100e+00,  2.03300e+00, -1.64200e-02, -6.22100e-03, -2.01400e-03, -1.76400e-04,  6.36000e-05,  1.13200e-05],
                           [-5.78200e+00,  1.30600e-01,  1.09900e-02,  6.09800e-03,  1.27400e-03,  4.21300e-04,  1.56600e-04,  9.98800e-05],
                           [-2.86100e+00,  6.39200e-02, -1.57800e-02, -5.88000e-03, -1.95500e-03, -5.47100e-05,  1.44300e-04,  4.85800e-05],
                           [-1.46800e+00,  5.73800e-02, -1.09700e-03, -3.97800e-04, -3.16400e-04,  1.31100e-04,  1.41200e-04,  6.36400e-05],
                           [-7.55100e-01,  2.11600e-02, -2.85100e-03, -1.35000e-03, -2.79400e-04,  1.91900e-04,  1.69500e-04,  6.12400e-05],
                           [-4.44700e-01, -2.43200e-03, -4.36600e-04, -5.56300e-04, -1.02400e-04,  1.07800e-04,  1.19300e-04,  4.96600e-05],
                           [-2.58300e-01, -2.44000e-02, -2.36000e-03, -7.76900e-04,  6.93300e-06,  1.59500e-04,  1.23600e-04,  4.25900e-05],
                           [-1.44300e-01, -3.18200e-02, -2.50700e-03, -2.70100e-04,  9.46600e-05,  1.07600e-04,  8.09200e-05,  3.23000e-05],
                           [-6.65200e-02, -3.60700e-02, -6.36000e-03, -1.14300e-03, -6.39800e-05,  1.04900e-04,  7.18600e-05,  2.27500e-05],
                           [-7.49800e-02, -2.53600e-02, -5.18100e-03, -3.55900e-04,  1.10900e-04,  7.51100e-05,  3.17900e-05,  1.45600e-05]])

# Reaction 4
chebyshev_reaction('O2 + bR (+ M) <=> bRO2 (+ M)',
                   Tmin=180.0, Tmax=1500.0,
                   Pmin=(0.01, 'atm'), Pmax=(98.692, 'atm'),
                   coeffs=[[ 1.24200e+01,  4.90400e-01, -4.88000e-02,  4.80000e-03, -1.09600e-03,  2.40800e-04, -4.77600e-05,  4.06700e-06],
                           [-1.59900e+00,  8.46800e-01, -6.00100e-02,  1.60500e-03, -4.01600e-04,  4.86200e-05, -1.55100e-07, -9.63700e-06],
                           [-1.18600e+00,  5.56300e-01,  3.72100e-03, -6.12900e-03,  2.99000e-04, -2.55400e-05,  4.86600e-07, -6.07400e-06],
                           [-8.75300e-01,  2.73900e-01,  4.02000e-02, -4.17200e-03, -6.21100e-04,  2.56800e-05,  1.05600e-05, -6.74400e-06],
                           [-5.94900e-01,  8.41800e-02,  4.08200e-02,  2.01900e-03, -9.04100e-04, -1.54800e-04,  3.53000e-05, -7.66600e-07],
                           [-3.81700e-01, -1.29700e-02,  2.44800e-02,  5.28800e-03, -4.34600e-05, -2.89400e-04,  3.20300e-06,  1.13300e-05],
                           [-2.30700e-01, -5.01400e-02,  8.19400e-03,  4.52100e-03,  8.23800e-04, -1.53000e-04, -4.40300e-05,  9.50600e-06],
                           [-1.27800e-01, -5.61700e-02, -2.21900e-03,  2.17500e-03,  9.69900e-04,  9.08000e-05, -3.59000e-05, -3.11700e-06],
                           [-6.01800e-02, -4.79600e-02, -7.45200e-03,  2.16800e-04,  6.15500e-04,  2.16800e-04,  1.44300e-05, -7.59400e-06],
                           [-1.84400e-02, -3.41600e-02, -9.37600e-03, -9.02200e-04,  2.29100e-04,  1.96100e-04,  5.02900e-05, -2.78200e-07]])
#  bRO2(+M) <=> bQOOHg(+M)                             1.000e+00 0.000     0.000
#      TCHEB/ 180.000   1500.000 /
#      PCHEB/ 0.010     98.692   /
#      CHEB/ 10 8/
#      CHEB/ -9.697e+00   7.356e-01    6.290e-03    -1.140e-02   6.720e-04   /
#      CHEB/ 9.722e-04    -7.167e-05   -7.054e-05   1.003e+01    1.199e+00   /
#      CHEB/ 3.898e-02    -1.762e-02   7.797e-04    1.370e-03    -6.034e-05  /
#      CHEB/ -1.025e-04   -2.266e+00   5.927e-01    7.482e-02    -1.272e-03  /
#      CHEB/ -6.555e-04   1.926e-04    4.413e-05    -9.856e-06   -1.527e+00  /
#      CHEB/ 5.184e-02    6.246e-02    1.722e-02    -4.893e-04   -8.708e-04  /
#      CHEB/ 2.869e-05    5.840e-05    -9.921e-01   -1.936e-01   9.940e-03   /
#      CHEB/ 2.183e-02    2.230e-03    -1.019e-03   -1.274e-04   4.881e-05   /
#      CHEB/ -5.496e-01   -1.853e-01   -3.177e-02   9.519e-03    4.153e-03   /
#      CHEB/ -3.774e-06   -2.137e-04   -2.867e-05   -2.523e-01   -8.638e-02  /
#      CHEB/ -3.470e-02   -5.754e-03   2.231e-03    1.098e-03    3.380e-06   /
#      CHEB/ -8.437e-05   -1.069e-01   -1.504e-02   -1.301e-02   -1.034e-02  /
#      CHEB/ -1.714e-03   9.700e-04    3.569e-04    -2.172e-05   -3.229e-02  /
#      CHEB/ 2.381e-03    5.611e-03    -4.178e-03   -3.467e-03   -2.260e-04  /
#      CHEB/ 4.053e-04    1.153e-04    -1.272e-02   -8.420e-03   8.106e-03   /
#      CHEB/ 3.553e-03    -1.640e-03   -1.074e-03   3.540e-05    1.575e-04   /

# Reaction 5
chebyshev_reaction('bQOOHa (+ M) <=> bQOOHg (+ M)',
                   Tmin=180.0, Tmax=1500.0,
                   Pmin=(0.01, 'atm'), Pmax=(98.692, 'atm'),
                   coeffs=[[-1.13900e+01,  1.52700e-01, -1.26800e-01, -1.74600e-02, -5.85500e-05,  2.07200e-03, -2.09500e-05, -1.97000e-04],
                           [ 5.92000e+00,  2.72000e+00,  1.21400e-01, -7.81500e-02,  5.17100e-03,  2.52600e-03, -4.10500e-04,  1.25200e-05],
                           [-2.62300e+00,  6.35600e-01,  2.38600e-01,  2.53300e-02, -1.38800e-02, -8.30600e-04,  8.06300e-04, -2.31200e-05],
                           [-1.98100e+00, -3.74800e-01,  8.03900e-02,  7.12700e-02,  1.40200e-03, -4.51700e-03, -2.30400e-04,  2.47800e-04],
                           [-1.11000e+00, -4.25800e-01, -7.17700e-02,  3.07600e-02,  1.46100e-02,  2.77100e-04, -1.21400e-03, -1.82300e-04],
                           [-4.71700e-01, -1.92000e-01, -9.36300e-02, -1.57500e-02,  7.22100e-03,  4.08100e-03,  1.73400e-04, -3.98400e-04],
                           [-1.60800e-01, -1.92200e-02, -4.19800e-02, -2.70800e-02, -4.71800e-03,  2.26000e-03,  1.23300e-03,  6.78700e-05],
                           [-4.06400e-02,  4.72900e-02,  8.95000e-03, -1.40800e-02, -8.75500e-03, -1.01900e-03,  7.65200e-04,  3.72300e-04],
                           [-1.17400e-03,  4.03000e-02,  3.15000e-02,  2.78000e-03, -5.51200e-03, -2.45700e-03, -1.25300e-04,  2.52800e-04],
                           [-4.89200e-04,  5.53700e-03,  2.46600e-02,  1.29200e-02,  1.56800e-04, -1.92200e-03, -6.29000e-04,  1.28400e-05]])

# Reaction 6
chebyshev_reaction('bQOOH[O] (+ M) <=> bQOOHg (+ M)',
                   Tmin=180.0, Tmax=1500.0,
                   Pmin=(0.01, 'atm'), Pmax=(98.692, 'atm'),
                   coeffs=[[-6.45200e+00,  1.17300e+00,  2.20300e-01,  6.97500e-02,  5.23200e-03, -1.25300e-02, -8.64600e-03, -2.12500e-03],
                           [-1.96700e+00,  9.34500e-01, -1.57300e-01, -5.75800e-02,  1.42300e-02,  2.00100e-02,  8.53600e-03,  6.19500e-04],
                           [-2.76200e+00,  5.31400e-01, -1.28100e-02, -3.63700e-02, -1.44400e-02, -3.05100e-03,  8.06000e-04,  1.43700e-03],
                           [-1.76200e+00,  3.29600e-02,  1.54600e-02, -5.18400e-03, -1.08000e-02, -3.95600e-03,  2.20300e-04,  1.00900e-03],
                           [-9.82400e-01, -1.77500e-01, -2.17800e-03,  1.89800e-02,  1.24200e-03, -1.75600e-03, -7.02200e-04, -2.49500e-04],
                           [-5.13100e-01, -1.35600e-01, -1.92500e-02,  1.77700e-02,  6.52500e-03, -6.46900e-04, -1.26500e-03, -5.72400e-04],
                           [-2.07300e-01, -5.39700e-02, -2.83800e-02,  3.10100e-04,  5.54800e-03,  2.01300e-03, -9.46900e-05, -3.87500e-04],
                           [-8.86700e-02,  5.85300e-03, -9.46700e-03, -7.79700e-03, -2.93500e-04,  1.39200e-03,  4.85700e-04,  6.31200e-05],
                           [-1.15600e-02, -4.72800e-04,  2.88000e-04, -5.56700e-03, -2.47300e-03,  7.96500e-04,  9.07900e-04,  2.39600e-04],
                           [-7.06600e-02, -3.41200e-03,  9.72000e-03,  3.29800e-03, -1.78400e-03, -1.22500e-03, -1.01500e-05,  2.41200e-04]])

# Reaction 7
chebyshev_reaction('O2 + bR (+ M) <=> bQOOHg (+ M)',
                   Tmin=180.0, Tmax=1500.0,
                   Pmin=(0.01, 'atm'), Pmax=(98.692, 'atm'),
                   coeffs=[[ 4.95600e+00,  3.27400e-01, -3.56100e-01, -8.12700e-03,  3.12800e-02, -1.07100e-02, -4.54300e-04,  2.07100e-03],
                           [-1.53400e+00,  1.84900e+00,  2.59700e-01, -1.08600e-01, -2.48800e-02,  2.34600e-02, -3.58500e-03, -2.68700e-03],
                           [-1.57400e+00,  4.79100e-01,  2.07700e-01,  4.93200e-02, -3.35500e-02, -5.23600e-03,  6.91500e-03, -9.66000e-04],
                           [-1.15400e+00, -7.35500e-02,  3.76500e-02,  6.78200e-02,  5.90200e-03, -1.20900e-02, -3.71100e-05,  2.07200e-03],
                           [-6.64000e-01, -1.47800e-01, -5.90400e-02,  2.22200e-02,  2.02000e-02, -1.40900e-03, -3.72700e-03,  5.34200e-04],
                           [-3.08300e-01, -6.33500e-02, -6.62600e-02, -1.48800e-02,  1.06500e-02,  5.39000e-03, -1.38100e-03, -9.54200e-04],
                           [-1.21300e-01,  1.84400e-02, -2.92200e-02, -2.53000e-02, -1.79800e-03,  4.47700e-03,  1.10800e-03, -6.62100e-04],
                           [-3.56100e-02,  4.58400e-02,  9.49300e-03, -1.64600e-02, -7.72700e-03,  9.16900e-04,  1.51800e-03,  8.51100e-05],
                           [-9.09500e-03,  2.90300e-02,  2.75200e-02, -1.62000e-03, -6.93600e-03, -1.58300e-03,  7.54600e-04,  3.75100e-04],
                           [-4.09400e-03, -5.20700e-04,  2.30400e-02,  8.46000e-03, -2.34600e-03, -2.10800e-03, -1.44000e-04,  2.82000e-04]])
#  bRO2(+M) <=> bQOOHa(+M)                             1.000e+00 0.000     0.000
#      TCHEB/ 180.000   1500.000 /
#      PCHEB/ 0.010     98.692   /
#      CHEB/ 10 8/
#      CHEB/ -5.740e+00   8.724e-01    -2.679e-02   -1.037e-02   1.687e-03   /
#      CHEB/ 5.783e-04    -1.596e-04   -1.500e-05   7.226e+00    1.372e+00   /
#      CHEB/ 7.390e-04    -1.690e-02   1.851e-03    6.763e-04    -1.249e-04  /
#      CHEB/ -2.325e-05   -2.030e+00   5.906e-01    7.823e-02    8.511e-04   /
#      CHEB/ -2.169e-03   -1.278e-04   1.541e-04    3.509e-06    -1.528e+00  /
#      CHEB/ -2.583e-02   7.711e-02    2.172e-02    -2.941e-03   -9.140e-04  /
#      CHEB/ 1.832e-04    2.616e-05    -1.005e+00   -2.398e-01   1.700e-02   /
#      CHEB/ 2.318e-02    1.471e-03    -8.607e-04   -1.093e-04   1.591e-05   /
#      CHEB/ -4.582e-01   -1.835e-01   -2.950e-02   6.669e-03    4.571e-03   /
#      CHEB/ 3.545e-04    -2.853e-04   -4.987e-05   -2.951e-01   -7.223e-02  /
#      CHEB/ -3.355e-02   -7.418e-03   2.176e-03    1.315e-03    -1.604e-05  /
#      CHEB/ -8.040e-05   -8.929e-02   -1.500e-02   -1.280e-02   -9.251e-03  /
#      CHEB/ -1.607e-03   7.148e-04    3.456e-04    1.120e-05    -1.694e-03  /
#      CHEB/ -5.205e-03   2.937e-03    -2.783e-03   -2.566e-03   -5.086e-04  /
#      CHEB/ 2.827e-04    1.217e-04    -6.168e-02   -8.391e-03   3.392e-03   /
#      CHEB/ 3.343e-03    -8.469e-04   -8.758e-04   -9.339e-05   9.461e-05   /
#  bQOOHg(+M) <=> bQOOHa(+M)                           1.000e+00 0.000     0.000
#      TCHEB/ 180.000   1500.000 /
#      PCHEB/ 0.010     98.692   /
#      CHEB/ 10 8/
#      CHEB/ -5.727e+00   1.527e-01    -1.268e-01   -1.746e-02   -5.855e-05  /
#      CHEB/ 2.072e-03    -2.095e-05   -1.970e-04   1.240e+00    2.720e+00   /
#      CHEB/ 1.214e-01    -7.815e-02   5.171e-03    2.526e-03    -4.105e-04  /
#      CHEB/ 1.252e-05    -2.713e+00   6.356e-01    2.386e-01    2.533e-02   /
#      CHEB/ -1.388e-02   -8.306e-04   8.063e-04    -2.312e-05   -2.017e+00  /
#      CHEB/ -3.748e-01   8.039e-02    7.127e-02    1.402e-03    -4.517e-03  /
#      CHEB/ -2.304e-04   2.478e-04    -1.121e+00   -4.258e-01   -7.177e-02  /
#      CHEB/ 3.076e-02    1.461e-02    2.771e-04    -1.214e-03   -1.823e-04  /
#      CHEB/ -4.743e-01   -1.920e-01   -9.363e-02   -1.575e-02   7.221e-03   /
#      CHEB/ 4.081e-03    1.734e-04    -3.984e-04   -1.615e-01   -1.922e-02  /
#      CHEB/ -4.198e-02   -2.708e-02   -4.718e-03   2.260e-03    1.233e-03   /
#      CHEB/ 6.787e-05    -4.092e-02   4.729e-02    8.950e-03    -1.408e-02  /
#      CHEB/ -8.755e-03   -1.019e-03   7.652e-04    3.723e-04    -1.198e-03  /
#      CHEB/ 4.030e-02    3.150e-02    2.780e-03    -5.512e-03   -2.457e-03  /
#      CHEB/ -1.253e-04   2.528e-04    -4.223e-04   5.537e-03    2.466e-02   /
#      CHEB/ 1.292e-02    1.568e-04    -1.922e-03   -6.290e-04   1.284e-05   /

# Reaction 8
chebyshev_reaction('bQOOH[O] (+ M) <=> bQOOHa (+ M)',
                   Tmin=180.0, Tmax=1500.0,
                   Pmin=(0.01, 'atm'), Pmax=(98.692, 'atm'),
                   coeffs=[[-3.12200e+00,  1.14100e+00,  4.14400e-02,  3.74200e-02,  8.48400e-03, -2.53700e-03, -3.44500e-03, -1.43000e-03],
                           [-3.99700e+00,  1.43700e+00, -4.15400e-02, -1.84800e-02,  7.47600e-03,  3.69900e-03,  1.06600e-03,  8.49200e-05],
                           [-2.73500e+00,  4.16400e-01, -1.65700e-02, -5.41400e-02, -1.21700e-02,  2.18200e-03,  2.81400e-03,  1.39300e-03],
                           [-1.79600e+00, -7.95200e-02,  4.90200e-02, -1.28800e-03, -9.84900e-03, -1.09100e-03,  7.11800e-04,  5.38900e-04],
                           [-9.52800e-01, -1.92700e-01,  1.50300e-02,  2.29300e-02, -5.44800e-05, -2.11600e-03, -8.25800e-04, -2.16700e-04],
                           [-4.75900e-01, -1.21400e-01, -2.37500e-02,  1.21400e-02,  6.18900e-03, -1.41300e-04, -1.00400e-03, -4.52800e-04],
                           [-2.14500e-01, -4.07700e-02, -2.81900e-02, -4.67100e-03,  3.89200e-03,  1.82100e-03, -4.99200e-05, -2.55100e-04],
                           [-8.97800e-02, -3.15800e-03, -9.50200e-03, -8.27800e-03, -4.60800e-04,  1.47300e-03,  6.53500e-04,  2.46500e-05],
                           [-1.94900e-02, -5.38100e-03,  1.32500e-03, -4.05700e-03, -2.12300e-03,  1.37900e-04,  5.80100e-04,  2.02000e-04],
                           [-6.84000e-02, -4.85600e-03,  7.46200e-03,  2.74100e-03, -7.40000e-04, -7.97100e-04, -1.04300e-04,  1.14000e-04]])

# Reaction 9
chebyshev_reaction('O2 + bR (+ M) <=> bQOOHa (+ M)',
                   Tmin=180.0, Tmax=1500.0,
                   Pmin=(0.01, 'atm'), Pmax=(98.692, 'atm'),
                   coeffs=[[ 6.58800e+00,  9.21900e-01, -3.77300e-01, -8.94400e-02,  4.07700e-02,  9.70600e-03, -7.91500e-03, -1.22400e-03],
                           [-1.93600e+00,  1.35100e+00,  3.30200e-01,  1.41700e-02, -6.44500e-02, -2.97600e-03,  1.29300e-02,  9.46500e-05],
                           [-1.58500e+00,  3.73000e-01,  1.06200e-01,  6.93300e-02,  5.06000e-03, -1.33800e-02, -3.72200e-03,  3.02400e-03],
                           [-1.11000e+00,  4.13000e-03, -5.24600e-03,  2.30300e-02,  1.95600e-02,  2.55000e-03, -4.16000e-03, -1.52700e-03],
                           [-6.54900e-01, -6.73900e-02, -2.90900e-02, -1.03800e-02,  6.52800e-03,  6.50000e-03,  9.16900e-04, -1.46200e-03],
                           [-3.33200e-01, -3.91600e-02, -1.63300e-02, -1.69000e-02, -3.92400e-03,  2.34700e-03,  2.25100e-03,  2.48600e-04],
                           [-1.51500e-01, -4.32200e-03,  3.89000e-03, -1.06300e-02, -6.31600e-03, -1.11800e-03,  9.35800e-04,  7.70400e-04],
                           [-5.88300e-02,  5.34600e-03,  1.71800e-02, -1.27700e-03, -4.38700e-03, -2.15200e-03, -2.53500e-04,  4.19900e-04],
                           [-2.19600e-02, -2.58100e-03,  1.85200e-02,  5.27400e-03, -1.28900e-03, -1.52500e-03, -6.35700e-04, -4.54800e-05],
                           [-5.77300e-03, -1.85000e-02,  9.05900e-03,  8.33500e-03,  1.54100e-03, -6.92700e-04, -5.59100e-04, -1.73700e-04]])
#  bRO2(+M) <=> bQOOH[O](+M)                           1.000e+00 0.000     0.000
#      TCHEB/ 180.000   1500.000 /
#      PCHEB/ 0.010     98.692   /
#      CHEB/ 10 8/
#      CHEB/ -8.668e+00   2.033e+00    -1.642e-02   -6.221e-03   -2.014e-03  /
#      CHEB/ -1.764e-04   6.360e-05    1.132e-05    5.519e+00    1.306e-01   /
#      CHEB/ 1.099e-02    6.098e-03    1.274e-03    4.213e-04    1.566e-04   /
#      CHEB/ 9.988e-05    -2.867e+00   6.392e-02    -1.578e-02   -5.880e-03  /
#      CHEB/ -1.955e-03   -5.471e-05   1.443e-04    4.858e-05    -1.489e+00  /
#      CHEB/ 5.738e-02    -1.097e-03   -3.978e-04   -3.164e-04   1.311e-04   /
#      CHEB/ 1.412e-04    6.364e-05    -7.659e-01   2.116e-02    -2.851e-03  /
#      CHEB/ -1.350e-03   -2.794e-04   1.919e-04    1.695e-04    6.124e-05   /
#      CHEB/ -4.487e-01   -2.432e-03   -4.366e-04   -5.563e-04   -1.024e-04  /
#      CHEB/ 1.078e-04    1.193e-04    4.966e-05    -2.598e-01   -2.440e-02  /
#      CHEB/ -2.360e-03   -7.769e-04   6.933e-06    1.595e-04    1.236e-04   /
#      CHEB/ 4.259e-05    -1.449e-01   -3.182e-02   -2.507e-03   -2.701e-04  /
#      CHEB/ 9.466e-05    1.076e-04    8.092e-05    3.230e-05    -6.670e-02  /
#      CHEB/ -3.607e-02   -6.360e-03   -1.143e-03   -6.398e-05   1.049e-04   /
#      CHEB/ 7.186e-05    2.275e-05    -7.497e-02   -2.536e-02   -5.181e-03  /
#      CHEB/ -3.559e-04   1.109e-04    7.511e-05    3.179e-05    1.456e-05   /
#  bQOOHg(+M) <=> bQOOH[O](+M)                         1.000e+00 0.000     0.000
#      TCHEB/ 180.000   1500.000 /
#      PCHEB/ 0.010     98.692   /
#      CHEB/ 10 8/
#      CHEB/ -9.146e+00   1.173e+00    2.203e-01    6.975e-02    5.232e-03   /
#      CHEB/ -1.253e-02   -8.646e-03   -2.125e-03   -5.250e-01   9.345e-01   /
#      CHEB/ -1.573e-01   -5.758e-02   1.423e-02    2.001e-02    8.536e-03   /
#      CHEB/ 6.195e-04    -2.913e+00   5.314e-01    -1.281e-02   -3.637e-02  /
#      CHEB/ -1.444e-02   -3.051e-03   8.060e-04    1.437e-03    -1.820e+00  /