units(length='cm', time='s', quantity='mol', act_energy='kcal/mol')

ideal_gas(name='gas',
          elements="H D T C Ci O Oi N Ne Ar He Si S F Cl Br I X",
          species="""aOOHbalkene      OH               ibutanal
                     aR               performic_acid   disub_c4ether
                     aQOOHb           H                aadduct
                     trisub_epoxy     ibutenol         aQOOH[O]
                     ipropyl          aRO2             O2
                     formic_acid      propene          aQOOHg
                     ibut_peroxyacid  HO2              CH3""",
          reactions='all',
          initial_state=state(temperature=300.0, pressure=OneAtm))

#-------------------------------------------------------------------------------
# Element data
#-------------------------------------------------------------------------------

element(symbol='Ci', atomic_mass=13.003)
element(symbol='D', atomic_mass=2.014)
element(symbol='Oi', atomic_mass=18.0)
element(symbol='T', atomic_mass=3.016)
element(symbol='X', atomic_mass=195.083)
#-------------------------------------------------------------------------------
# Species data
#-------------------------------------------------------------------------------

species(name='aOOHbalkene',
        atoms='C:3 H:6 O:3',
        thermo=(NASA([10.00, 497.41],
                     [ 3.76691735E+00,  1.51417956E-02,  1.85499431E-04,
                      -4.61303214E-07,  3.27678941E-10, -3.14133126E+04,
                       1.09903968E+01]),
                NASA([497.41, 3000.00],
                     [ 6.20882781E+00,  4.08866173E-02, -2.89934946E-05,
                       9.60428979E-09, -1.19355432E-12, -3.22176420E+04,
                      -4.72842811E+00])))

species(name='OH',
        atoms='H:1 O:1',
        thermo=(NASA([10.00, 984.14],
                     [ 3.49686242E+00,  1.83973160E-04, -9.97634499E-07,
                       1.56942783E-09, -6.10128175E-13,  3.41673934E+03,
                       1.48093120E+00]),
                NASA([984.14, 3000.00],
                     [ 3.45221464E+00, -2.95124034E-04,  7.39418622E-07,
                      -2.89309866E-10,  3.53041498E-14,  3.45751599E+03,
                       1.85813897E+00])))

species(name='ibutanal',
        atoms='C:4 H:8 O:1',
        thermo=(NASA([10.00, 683.88],
                     [ 3.57157346E+00,  3.36936906E-02, -1.78475021E-05,
                       1.31946716E-08, -7.58008388E-12, -2.70923123E+04,
                       1.05595084E+01]),
                NASA([683.88, 3000.00],
                     [ 1.29043622E+00,  4.14804229E-02, -2.27411206E-05,
                       6.08619500E-09, -6.38995128E-13, -2.66503932E+04,
                       2.16477430E+01])))

species(name='aR',
        atoms='C:4 H:9 O:1',
        thermo=(NASA([10.00, 455.22],
                     [ 3.59625500E+00,  3.38947981E-02,  7.37257079E-06,
                      -3.99275335E-08,  2.49019944E-11, -1.42306754E+04,
                       1.18269265E+01]),
                NASA([455.22, 3000.00],
                     [ 2.49586309E+00,  4.35639890E-02, -2.44887770E-05,
                       6.73363769E-09, -7.23862433E-13, -1.41304923E+04,
                       1.62696907E+01])))

species(name='performic_acid',
        atoms='C:1 H:2 O:3',
        thermo=(NASA([10.00, 590.95],
                     [ 3.92633851E+00,  4.24517168E-03,  6.71106764E-05,
                      -1.36545385E-07,  8.03337864E-11, -3.63028176E+04,
                       8.06485813E+00]),
                NASA([590.95, 3000.00],
                     [ 4.39992934E+00,  1.85411415E-02, -1.36005501E-05,
                       4.62292431E-09, -5.88463603E-13, -3.66643888E+04,
                       3.44353230E+00])))

species(name='disub_c4ether',
        atoms='C:4 H:8 O:2',
        thermo=(NASA([10.00, 413.50],
                     [ 3.78241323E+00,  1.89501763E-02,  8.65302396E-05,
                      -1.80580575E-07,  1.13656264E-10, -4.00247149E+04,
                       1.09982450E+01]),
                NASA([413.50, 3000.00],
                     [ 4.29420885E-01,  5.13851903E-02, -3.11292293E-05,
                       9.11498284E-09, -1.03192718E-12, -3.97474206E+04,
                       2.42134976E+01])))

species(name='aQOOHb',
        atoms='C:4 H:9 O:3',
        thermo=(NASA([10.00, 412.78],
                     [ 3.15498836E+00,  8.55068303E-02, -2.35307993E-04,
                       4.71983261E-07, -3.62709267E-10, -3.03805607E+04,
                       1.52522123E+01]),
                NASA([412.78, 3000.00],
                     [ 4.18099845E+00,  5.26168288E-02, -3.23998410E-05,
                       9.59389339E-09, -1.09464519E-12, -3.02697657E+04,
                       1.35782328E+01])))

species(name='H',
        atoms='H:1',
        thermo=(NASA([10.00, 794.01],
                     [ 2.50000000E+00,  1.99051163E-15, -1.19089508E-17,
                       2.10805655E-20, -1.11017699E-23,  2.54725594E+04,
                      -4.61279342E-01]),
                NASA([794.01, 3000.00],
                     [ 2.50000000E+00,  1.52667235E-14, -1.58445285E-17,
                       6.63088600E-21, -9.62111674E-25,  2.54725594E+04,
                      -4.61279342E-01])))

species(name='aadduct',
        atoms='C:4 H:9 O:3',
        thermo=(NASA([10.00, 449.84],
                     [ 3.06901904E+00,  9.20724491E-02, -2.68085092E-04,
                       5.15249897E-07, -3.68046586E-10, -3.28596457E+04,
                       1.46591735E+01]),
                NASA([449.84, 3000.00],
                     [ 4.11210745E+00,  5.16955724E-02, -2.97401041E-05,
                       8.32758939E-09, -9.08861448E-13, -3.26388047E+04,
                       1.39578825E+01])))

species(name='trisub_epoxy',
        atoms='C:4 H:8 O:2',
        thermo=(NASA([10.00, 209.19],
                     [ 3.75295042E+00,  2.37546930E-02,  1.26610110E-04,
                      -4.78364365E-07,  5.79468168E-10, -4.14423621E+04,
                       1.12739684E+01]),
                NASA([209.19, 3000.00],
                     [ 2.64185254E+00,  4.50006531E-02, -2.57361066E-05,
                       7.15266054E-09, -7.72980731E-13, -4.13958765E+04,
                       1.48960343E+01])))

species(name='ibutenol',
        atoms='C:4 H:8 O:1',
        thermo=(NASA([10.00, 135.97],
                     [ 3.95714996E+00,  5.72646980E-03,  4.63611760E-04,
                      -3.04137514E-06,  6.85019471E-09, -2.23909479E+04,
                       8.21931848E+00]),
                NASA([135.97, 3000.00],
                     [ 3.32467612E+00,  3.69033556E-02, -1.89960416E-05,
                       4.73417677E-09, -4.59705291E-13, -2.23853692E+04,
                       9.58133237E+00])))

species(name='aQOOH[O]',
        atoms='C:4 H:9 O:3',
        thermo=(NASA([10.00, 488.36],
                     [ 3.54559533E+00,  3.89536133E-02,  8.47689703E-05,
                      -2.45147486E-07,  1.76157259E-10, -2.35952405E+04,
                       1.34685910E+01]),
                NASA([488.36, 3000.00],
                     [ 3.94214913E+00,  5.71928314E-02, -3.72516212E-05,
                       1.15209013E-08, -1.35808341E-12, -2.38902015E+04,
                       9.21628964E+00])))

species(name='ipropyl',
        atoms='C:3 H:7',
        thermo=(NASA([10.00, 421.76],
                     [ 3.73943775E+00,  3.10070157E-02, -1.51196908E-04,
                       4.35367329E-07, -3.85565052E-10,  9.49213457E+03,
                       7.79448918E+00]),
                NASA([421.76, 3000.00],
                     [-4.74526725E-01,  3.20862468E-02, -1.67340747E-05,
                       4.21365136E-09, -4.13155573E-13,  1.01934458E+04,
                       2.85865912E+01])))

species(name='aRO2',
        atoms='C:4 H:9 O:3',
        thermo=(NASA([10.00, 670.36],
                     [ 3.45405325E+00,  4.74751311E-02,  9.77507759E-06,
                      -6.31019603E-08,  3.75500067E-11, -3.55785530E+04,
                       1.39284976E+01]),
                NASA([670.36, 3000.00],
                     [ 5.04137652E+00,  5.19952978E-02, -3.16472789E-05,
                       9.22798587E-09, -1.03598915E-12, -3.61057455E+04,
                       4.56056770E+00])))

species(name='O2',
        atoms='O:2',
        thermo=(NASA([10.00, 605.96],
                     [ 3.50743498E+00, -4.43860349E-04,  1.45938058E-06,
                       1.61509333E-09, -2.32050052E-12, -9.24756224E+02,
                       4.72183634E+00]),
                NASA([605.96, 3000.00],
                     [ 2.87462882E+00,  2.17840991E-03, -1.18262921E-06,
                       2.86910493E-10, -2.53297146E-14, -8.19517838E+02,
                       7.69331810E+00])))

species(name='formic_acid',
        atoms='C:1 H:2 O:2',
        thermo=(NASA([10.00, 741.38],
                     [ 4.06855785E+00, -4.74562133E-03,  4.71797900E-05,
                      -6.07490052E-08,  2.51286794E-11, -4.66880837E+04,
                       6.53681035E+00]),
                NASA([741.38, 3000.00],
                     [ 1.13645847E+00,  1.74953124E-02, -1.08112403E-05,
                       3.08075326E-09, -3.34892658E-13, -4.64297918E+04,
                       1.86149484E+01])))

species(name='propene',
        atoms='C:3 H:6',
        thermo=(NASA([10.00, 519.53],
                     [ 3.98723879E+00,  4.72040503E-04,  6.51776229E-05,
                      -9.89891002E-08,  4.91141123E-11,  1.26270566E+03,
                       6.98071210E+00]),
                NASA([519.53, 3000.00],
                     [ 3.79893331E-01,  2.82457690E-02, -1.50108430E-05,
                       3.90894069E-09, -4.00521928E-13,  1.63753301E+03,
                       2.20218922E+01])))

species(name='aQOOHg',
        atoms='C:4 H:9 O:3',
        thermo=(NASA([10.00, 455.48],
                     [ 3.62522127E+00,  2.83222320E-02,  2.08527447E-04,
                      -5.67427418E-07,  4.35169138E-10, -2.53385926E+04,
                       1.26617758E+01]),
                NASA([455.48, 3000.00],
                     [ 5.13914202E+00,  5.96270859E-02, -4.14435328E-05,
                       1.34202375E-08, -1.63474553E-12, -2.59391490E+04,
                       1.46991116E+00])))

species(name='ibut_peroxyacid',
        atoms='C:4 H:8 O:3',
        thermo=(NASA([10.00, 1386.21],
                     [ 3.50995385E+00,  4.78670384E-02, -2.40781384E-05,
                       3.71046938E-09,  3.85442115E-13, -4.74498047E+04,
                       1.22017268E+01]),
                NASA([1386.21, 3000.00],
                     [ 1.24543146E+01,  3.02396862E-02, -1.38577031E-05,
                       3.05328904E-09, -2.63982457E-13, -5.07156880E+04,
                      -3.67061828E+01])))

species(name='HO2',
        atoms='H:1 O:2',
        thermo=(NASA([10.00, 891.11],
                     [ 4.02887004E+00, -1.75769289E-03,  1.08726004E-05,
                      -1.13812972E-08,  3.90113097E-12,  4.95165001E+02,
                       4.69302008E+00]),
                NASA([891.11, 3000.00],
                     [ 3.06571044E+00,  4.28505005E-03, -2.19325920E-06,
                       5.58882699E-10, -5.61246669E-14,  5.98557610E+02,
                       8.84564156E+00])))

species(name='CH3',
        atoms='C:1 H:3',
        thermo=(NASA([10.00, 616.77],
                     [ 3.98929952E+00,  5.45150461E-04,  9.01320092E-06,
                      -1.08320497E-08,  4.38985879E-12,  1.65859883E+04,
                       2.22446886E-01]),
                NASA([616.77, 3000.00],
                     [ 3.35928237E+00,  4.63117126E-03, -9.24365433E-07,
                      -9.02514624E-11,  3.56905106E-14,  1.66637014E+04,
                       2.95743732E+00])))

#-------------------------------------------------------------------------------
# Reaction data
#-------------------------------------------------------------------------------

# Reaction 1
chebyshev_reaction('aQOOH[O] (+ M) <=> aQOOHb (+ M)',
                   Tmin=180.0, Tmax=1500.0,
                   Pmin=(0.01, 'atm'), Pmax=(98.692, 'atm'),
                   coeffs=[[-2.61800e+00,  1.20300e+00, -1.50200e-01,  7.68600e-03, -1.05400e-02,  1.65400e-03,  7.68500e-05, -1.58200e-04],
                           [-1.68400e+00,  2.18600e+00,  6.99500e-02, -8.57400e-03,  8.39800e-03, -1.58000e-03, -5.19000e-05, -6.88500e-05],
                           [-2.48500e+00,  5.33900e-01,  2.73900e-02, -2.17500e-02, -7.91100e-04,  2.28000e-04,  2.30500e-04,  2.46200e-04],
                           [-1.44700e+00, -1.25600e-02,  6.21900e-02,  1.77500e-02, -7.06900e-03, -3.28600e-03,  1.50400e-05,  3.07800e-04],
                           [-7.87100e-01, -2.05200e-01,  2.14200e-02,  4.17100e-02,  4.03300e-03, -3.93100e-03, -6.60600e-04,  2.47500e-04],
                           [-4.02100e-01, -2.10600e-01, -4.16000e-02,  2.35200e-02,  1.20900e-02, -7.50300e-04, -1.15100e-03,  4.34200e-05],
                           [-1.82000e-01, -1.29600e-01, -6.83200e-02, -4.11300e-03,  9.44400e-03,  2.52600e-03, -6.61400e-04, -3.07700e-04],
                           [-5.53800e-02, -5.54700e-02, -5.14000e-02, -1.83500e-02,  1.72900e-03,  3.30500e-03,  2.07200e-04, -2.96200e-04],
                           [-3.71300e-03,  1.04800e-02, -2.16900e-02, -1.89700e-02, -3.33200e-03,  1.47700e-03,  8.03700e-04, -6.09400e-05],
                           [ 1.55900e-02,  3.21300e-02,  2.34300e-03, -9.97600e-03, -5.59700e-03, -1.33900e-04,  5.55800e-04,  1.51600e-04]])

# Reaction 2
chebyshev_reaction('aQOOHg (+ M) <=> aQOOHb (+ M)',
                   Tmin=180.0, Tmax=1500.0,
                   Pmin=(0.01, 'atm'), Pmax=(98.692, 'atm'),
                   coeffs=[[-5.37700e+00,  1.24900e+00, -3.07500e-01, -4.59400e-02,  1.76800e-02,  2.81300e-03, -2.61800e-03,  6.67900e-05],
                           [-2.15400e+00,  2.47900e+00,  3.05800e-01, -8.20800e-02, -2.32500e-02,  8.74500e-03,  1.79400e-03, -1.37700e-03],
                           [-2.98500e+00, -8.27700e-02,  1.39900e-01,  9.30700e-02, -5.79100e-03, -1.21400e-02,  2.00500e-04,  1.70500e-03],
                           [-1.74000e+00, -4.39900e-01, -6.04300e-02,  3.24800e-02,  1.89000e-02,  2.77100e-04, -3.18100e-03, -3.77400e-04],
                           [-7.41700e-01, -1.99900e-01, -2.84700e-02, -8.85700e-03, -3.68800e-03,  4.11300e-03,  1.94300e-03, -7.52200e-04],
                           [-3.13500e-01, -7.98300e-02, -2.39800e-03,  1.03900e-02, -5.65900e-03, -2.99600e-03,  1.02500e-03,  7.49600e-04],
                           [-1.35600e-01, -8.35700e-02, -3.21300e-02,  1.30200e-02,  6.16000e-03, -1.33200e-03, -1.43100e-03, -4.06300e-05],
                           [-3.39800e-02, -7.65800e-02, -3.98200e-02, -7.54300e-03,  4.88800e-03,  2.82400e-03,  4.54600e-05, -6.42100e-04],
                           [-2.45200e-02,  1.60600e-02, -3.00200e-02, -1.40000e-02, -2.16700e-03,  1.24900e-03,  1.04300e-03,  1.51900e-04],
                           [ 2.55700e-03,  2.71800e-02,  6.13200e-03, -7.38600e-03, -4.40100e-03, -1.09000e-03,  2.51800e-04,  3.66400e-04]])

# Reaction 3
chebyshev_reaction('aRO2 (+ M) <=> aQOOHb (+ M)',
                   Tmin=180.0, Tmax=1500.0,
                   Pmin=(0.01, 'atm'), Pmax=(98.692, 'atm'),
                   coeffs=[[-8.87200e+00,  1.14200e+00, -4.32100e-02, -1.86200e-02, -7.25100e-04,  2.56500e-03, -8.32300e-04, -4.66300e-05],
                           [ 8.80400e+00,  1.79400e+00,  1.07800e-02, -4.48000e-02,  2.47000e-03,  2.18800e-03, -8.26900e-04, -1.23700e-04],
                           [-1.92900e+00,  8.06000e-01,  1.26700e-01, -2.02100e-02, -2.01400e-03,  1.01600e-04, -2.96700e-04,  7.16300e-05],
                           [-1.41000e+00, -1.28800e-02,  1.31300e-01,  2.05700e-02, -4.81800e-03, -1.82300e-03,  4.62200e-05,  1.62600e-04],
                           [-9.19100e-01, -3.50700e-01,  4.25300e-02,  3.90300e-02,  6.13600e-04, -2.58000e-03, -1.20300e-04,  1.24400e-04],
                           [-4.66000e-01, -3.18800e-01, -4.39000e-02,  2.41700e-02,  7.48000e-03, -8.63800e-04, -5.20200e-04, -3.49600e-05],
                           [-1.77400e-01, -1.64800e-01, -7.25200e-02, -2.10500e-03,  7.59700e-03,  1.72300e-03, -3.82900e-04, -2.09200e-04],
                           [-2.42500e-02, -4.31400e-02, -5.33400e-02, -1.72400e-02,  2.03400e-03,  2.48900e-03,  2.92300e-04, -1.90000e-04],
                           [ 7.12900e-03,  1.71400e-02, -2.12200e-02, -1.65600e-02, -3.28000e-03,  1.18500e-03,  7.12300e-04,  3.13100e-05],
                           [ 2.20500e-02,  3.63000e-02,  2.92600e-03, -8.57500e-03, -4.72100e-03, -5.25600e-04,  5.01200e-04,  2.07300e-04]])

# Reaction 4
chebyshev_reaction('aadduct (+ M) <=> aQOOHb (+ M)',
                   Tmin=180.0, Tmax=1500.0,
                   Pmin=(0.01, 'atm'), Pmax=(98.692, 'atm'),
                   coeffs=[[-1.08100e+01, -1.67000e-01,  4.02600e-02, -1.51500e-02, -1.03600e-03,  2.80500e-03, -8.55400e-04, -7.19400e-05],
                           [ 5.63200e+00,  1.91500e+00,  1.51300e-02, -4.65500e-02,  2.38200e-03,  1.99100e-03, -8.18200e-04, -1.23400e-04],
                           [-2.02500e+00,  8.23000e-01,  1.26200e-01, -2.09200e-02, -2.10700e-03,  1.65400e-04, -3.15700e-04,  1.33000e-04],
                           [-1.43900e+00, -6.79800e-03,  1.30800e-01,  2.04800e-02, -5.05800e-03, -1.70400e-03, -8.18800e-06,  1.43000e-04],
                           [-9.19700e-01, -3.42800e-01,  4.33900e-02,  3.86400e-02,  6.52800e-04, -2.65500e-03, -1.31100e-04,  1.55900e-04],
                           [-4.62400e-01, -3.10600e-01, -4.26300e-02,  2.41100e-02,  7.50700e-03, -8.83200e-04, -4.89400e-04, -4.09700e-05],
                           [-1.76200e-01, -1.59800e-01, -7.15700e-02, -2.07200e-03,  7.66900e-03,  1.68800e-03, -3.53400e-04, -2.17500e-04],
                           [-2.61600e-02, -4.10300e-02, -5.31100e-02, -1.70600e-02,  1.98500e-03,  2.50700e-03,  2.88400e-04, -2.11800e-04],
                           [ 5.51400e-03,  1.74700e-02, -2.13600e-02, -1.65400e-02, -3.35000e-03,  1.22100e-03,  7.02100e-04,  3.54200e-05],
                           [ 2.04400e-02,  3.61900e-02,  2.93700e-03, -8.70800e-03, -4.70600e-03, -5.04600e-04,  4.68800e-04,  2.35900e-04]])

# Reaction 5
chebyshev_reaction('O2 + aR (+ M) <=> aQOOHb (+ M)',
                   Tmin=180.0, Tmax=1500.0,
                   Pmin=(0.01, 'atm'), Pmax=(98.692, 'atm'),
                   coeffs=[[ 5.62600e+00,  3.30900e+00, -1.50000e+00,  2.37200e-01,  2.53600e-02, -3.35800e-02,  1.33600e-02, -2.86000e-03],
                           [-2.53700e+00,  2.63400e+00,  5.46000e-01, -4.01400e-01,  5.24100e-02,  2.60300e-02, -1.29600e-02,  3.22100e-03],
                           [-1.57200e+00,  5.23100e-01,  4.45800e-01, -4.59700e-02, -3.87500e-02,  9.66100e-03,  4.69100e-04,  6.16700e-04],
                           [-9.88500e-01, -1.90400e-01,  1.71200e-01,  5.02400e-02, -1.12300e-02, -2.61600e-03, -1.21800e-03,  7.32000e-04],
                           [-5.33200e-01, -2.66400e-01,  5.81000e-03,  3.30000e-02,  7.28100e-03, -1.05800e-04, -1.57000e-03, -4.62800e-04],
                           [-2.46000e-01, -1.75900e-01, -4.34200e-02,  4.54100e-03,  6.31900e-03,  2.26400e-03, -7.52800e-05, -5.88900e-04],
                           [-9.06400e-02, -7.80100e-02, -4.02400e-02, -8.59700e-03,  1.27200e-03,  1.66100e-03,  6.26900e-04, -1.37900e-04],
                           [-1.93400e-02, -1.62200e-02, -2.12900e-02, -1.04700e-02, -1.88700e-03,  5.50000e-04,  4.79500e-04,  8.22500e-05],
                           [ 7.47900e-03,  1.48500e-02, -4.52700e-03, -7.13300e-03, -2.86400e-03, -2.19000e-04,  2.18100e-04,  8.30700e-05],
                           [ 9.74900e-03,  2.14900e-02,  6.47600e-03, -2.58300e-03, -2.47300e-03, -6.51300e-04,  4.33300e-05,  6.63100e-05]])
#  aQOOHb(+M) <=> aQOOH[O](+M)                         1.000e+00 0.000     0.000
#      TCHEB/ 180.000   1500.000 /
#      PCHEB/ 0.010     98.692   /
#      CHEB/ 10 8/
#      CHEB/ -1.328e+01   1.203e+00    -1.502e-01   7.686e-03    -1.054e-02  /
#      CHEB/ 1.654e-03    7.685e-05    -1.582e-04   5.341e+00    2.186e+00   /
#      CHEB/ 6.995e-02    -8.574e-03   8.398e-03    -1.580e-03   -5.190e-05  /
#      CHEB/ -6.885e-05   -2.407e+00   5.339e-01    2.739e-02    -2.175e-02  /
#      CHEB/ -7.911e-04   2.280e-04    2.305e-04    2.462e-04    -1.401e+00  /
#      CHEB/ -1.256e-02   6.219e-02    1.775e-02    -7.069e-03   -3.286e-03  /
#      CHEB/ 1.504e-05    3.078e-04    -7.717e-01   -2.052e-01   2.142e-02   /
#      CHEB/ 4.171e-02    4.033e-03    -3.931e-03   -6.606e-04   2.475e-04   /
#      CHEB/ -3.973e-01   -2.106e-01   -4.160e-02   2.352e-02    1.209e-02   /
#      CHEB/ -7.503e-04   -1.151e-03   4.342e-05    -1.802e-01   -1.296e-01  /
#      CHEB/ -6.832e-02   -4.113e-03   9.444e-03    2.526e-03    -6.614e-04  /
#      CHEB/ -3.077e-04   -5.466e-02   -5.547e-02   -5.140e-02   -1.835e-02  /
#      CHEB/ 1.729e-03    3.305e-03    2.072e-04    -2.962e-04   -3.518e-03  /
#      CHEB/ 1.048e-02    -2.169e-02   -1.897e-02   -3.332e-03   1.477e-03   /
#      CHEB/ 8.037e-04    -6.094e-05   1.560e-02    3.213e-02    2.343e-03   /
#      CHEB/ -9.976e-03   -5.597e-03   -1.339e-04   5.558e-04    1.516e-04   /

# Reaction 6
chebyshev_reaction('aQOOHg (+ M) <=> aQOOH[O] (+ M)',
                   Tmin=180.0, Tmax=1500.0,
                   Pmin=(0.01, 'atm'), Pmax=(98.692, 'atm'),
                   coeffs=[[-4.62400e+00,  2.95400e+00, -7.13900e-01,  1.84100e-01, -7.49100e-04, -1.95100e-02,  8.99200e-03, -2.47800e-03],
                           [-4.40800e+00, -2.26700e-01,  6.99300e-01, -1.48100e-01, -4.39100e-03,  2.31600e-02, -9.00600e-03,  1.64400e-03],
                           [-3.99100e+00, -5.00500e-01,  4.15300e-03,  1.07600e-02, -5.58700e-03,  3.87900e-03, -1.24500e-03,  1.15000e-04],
                           [-1.64800e+00, -3.31800e-02, -1.51500e-01, -3.27400e-02,  7.29100e-03,  3.42600e-03, -1.26500e-03, -9.30700e-04],
                           [-6.26700e-01,  2.09500e-01, -4.73500e-02, -1.82300e-02, -3.87200e-03, -9.60900e-04,  1.88000e-03, -6.56600e-04],
                           [-2.58300e-01,  9.93500e-02,  2.65700e-02,  1.45000e-02, -7.80800e-04, -2.68200e-03, -1.00500e-03,  6.57000e-04],
                           [-9.46700e-02, -8.07000e-02,  2.36000e-02,  7.83900e-03,  8.81700e-03,  1.87100e-03, -3.10400e-03,  5.88900e-04],
                           [-1.12100e-01, -1.36100e-02, -4.88400e-02, -1.24600e-04,  7.46400e-03, -4.08100e-04,  2.29100e-03, -1.13000e-03],
                           [-2.71400e-02, -2.92600e-02, -1.48600e-02, -1.06100e-02, -5.06000e-03,  2.41400e-03, -2.56200e-04,  1.21100e-03],
                           [-2.79100e-02,  2.29400e-02, -2.87800e-03, -3.69100e-03, -2.96000e-03, -3.44600e-03,  1.10500e-03, -2.13200e-05]])

# Reaction 7
chebyshev_reaction('aRO2 (+ M) <=> aQOOH[O] (+ M)',
                   Tmin=180.0, Tmax=1500.0,
                   Pmin=(0.01, 'atm'), Pmax=(98.692, 'atm'),
                   coeffs=[[-1.03700e+01,  2.08300e+00, -2.73500e-01,  5.06200e-02, -1.64200e-02,  3.68700e-03, -2.83100e-04, -4.95200e-05],
                           [ 8.95400e+00,  1.06300e+00,  2.10200e-03,  1.59300e-02,  9.27000e-03, -5.09000e-03,  8.75700e-04, -1.65400e-04],
                           [-3.16200e+00,  1.46600e-01, -1.23600e-02, -1.67000e-02,  1.11800e-02, -9.21900e-04, -1.87200e-05,  1.25900e-04],
                           [-1.56700e+00, -3.01400e-02,  1.18000e-02, -1.45500e-02, -9.25100e-05,  9.29100e-04, -3.72800e-04,  6.22700e-05],
                           [-7.40900e-01, -7.26200e-02,  1.62000e-02,  8.95100e-04, -2.00500e-03,  5.34100e-04, -8.79500e-05, -9.80300e-05],
                           [-3.45500e-01, -7.86000e-02,  2.12600e-03,  3.41400e-03,  3.79100e-04, -1.62800e-04,  1.13700e-04,  6.49900e-05],
                           [-1.56400e-01, -5.24400e-02, -1.74200e-02,  1.47800e-03,  1.17200e-03, -4.29200e-04,  2.19600e-04,  1.35100e-05],
                           [-5.20700e-02, -3.41700e-02, -1.97600e-02, -1.38100e-03,  2.48800e-04,  2.38000e-04, -8.74500e-05,  4.41800e-05],
                           [-1.53300e-02, -1.59000e-03, -1.15800e-02, -6.17400e-03,  6.04400e-04,  9.12800e-05,  2.81800e-05,  4.56500e-06],
                           [ 6.85300e-03,  1.17700e-02, -4.32100e-03, -3.84700e-03, -1.48200e-03,  5.61000e-04, -3.45900e-05, -8.90700e-06]])

# Reaction 8
chebyshev_reaction('aadduct (+ M) <=> aQOOH[O] (+ M)',
                   Tmin=180.0, Tmax=1500.0,
                   Pmin=(0.01, 'atm'), Pmax=(98.692, 'atm'),
                   coeffs=[[-1.23100e+01,  7.73100e-01, -1.90500e-01,  5.38200e-02, -1.68700e-02,  3.87600e-03, -3.10300e-04, -6.28100e-05],
                           [ 5.78200e+00,  1.18500e+00,  6.96400e-03,  1.45300e-02,  9.37900e-03, -5.20200e-03,  9.04200e-04, -1.72900e-04],
                           [-3.25800e+00,  1.63700e-01, -1.27400e-02, -1.74000e-02,  1.10600e-02, -8.97700e-04, -6.80600e-05,  1.71000e-04],
                           [-1.59600e+00, -2.43300e-02,  1.11000e-02, -1.47600e-02, -3.79800e-04,  1.04400e-03, -4.13100e-04,  5.77100e-05],
                           [-7.41600e-01, -6.46900e-02,  1.70700e-02,  5.36900e-04, -1.93800e-03,  4.77900e-04, -8.94400e-05, -6.46300e-05],
                           [-3.41900e-01, -7.03000e-02,  3.45800e-03,  3.38700e-03,  4.10400e-04, -1.90600e-04,  1.34400e-04,  5.23200e-05],
                           [-1.55200e-01, -4.73700e-02, -1.64400e-02,  1.51500e-03,  1.24100e-03, -4.69500e-04,  2.45400e-04,  3.39400e-06],
                           [-5.40300e-02, -3.21500e-02, -1.96000e-02, -1.23900e-03,  1.93900e-04,  2.62600e-04, -8.25300e-05,  2.89600e-05],
                           [-1.69300e-02, -1.22500e-03, -1.16900e-02, -6.14000e-03,  5.39800e-04,  1.27100e-04,  1.48900e-05,  5.63500e-06],
                           [ 5.24200e-03,  1.16800e-02, -4.30400e-03, -3.97800e-03, -1.46900e-03,  5.79200e-04, -6.89500e-05,  1.88300e-05]])

# Reaction 9
chebyshev_reaction('O2 + aR (+ M) <=> aQOOH[O] (+ M)',
                   Tmin=180.0, Tmax=1500.0,
                   Pmin=(0.01, 'atm'), Pmax=(98.692, 'atm'),
                   coeffs=[[ 3.19200e+00,  3.68300e+00, -6.78600e-01,  9.41000e-02,  5.38600e-02, -3.49000e-02,  1.03100e-02,  8.38800e-04],
                           [-2.79500e+00,  1.38600e-02,  7.83600e-01, -4.05700e-01, -1.73000e-02,  6.21100e-02, -1.69200e-02,  3.05800e-04],
                           [-1.34000e+00, -1.97400e-01,  3.61600e-01,  4.82900e-02, -1.35700e-01,  3.02500e-02,  1.31700e-02, -7.22500e-03],
                           [-7.85300e-01, -1.33600e-01,  6.53000e-02,  1.48900e-01, -5.93700e-02, -2.43600e-02,  2.27400e-02, -3.74500e-03],
                           [-4.30300e-01, -1.13000e-01, -3.15500e-02,  8.55200e-02,  1.66500e-02, -3.70100e-02,  1.18800e-02,  4.47000e-03],
                           [-2.27200e-01, -1.05800e-01, -4.71400e-02,  2.19600e-02,  3.30600e-02, -1.84300e-02, -3.93100e-03,  9.67900e-03],
                           [-1.18600e-01, -7.26700e-02, -4.28700e-02, -4.84400e-03,  1.96900e-02, -3.56400e-04, -1.00600e-02,  6.96100e-03],
                           [-4.94800e-02, -4.71700e-02, -3.16600e-02, -1.11800e-02,  6.32700e-03,  5.41400e-03, -6.63700e-03,  8.85300e-04],
                           [-1.82700e-02, -9.93000e-03, -2.05900e-02, -1.17300e-02,  5.03900e-04,  4.25700e-03, -2.03400e-03, -2.19700e-03],
                           [ 1.91900e-03,  1.02200e-02, -3.72900e-03, -8.78600e-03, -2.16900e-03,  2.20000e-03,  1.90400e-04, -2.13800e-03]])
#  aQOOHb(+M) <=> aQOOHg(+M)                           1.000e+00 0.000     0.000
#      TCHEB/ 180.000   1500.000 /
#      PCHEB/ 0.010     98.692   /
#      CHEB/ 10 8/
#      CHEB/ -1.388e+01   1.249e+00    -3.075e-01   -4.594e-02   1.768e-02   /
#      CHEB/ 2.813e-03    -2.618e-03   6.679e-05    3.324e+00    2.479e+00   /
#      CHEB/ 3.058e-01    -8.208e-02   -2.325e-02   8.745e-03    1.794e-03   /
#      CHEB/ -1.377e-03   -2.761e+00   -8.277e-02   1.399e-01    9.307e-02   /
#      CHEB/ -5.791e-03   -1.214e-02   2.005e-04    1.705e-03    -1.646e+00  /
#      CHEB/ -4.399e-01   -6.043e-02   3.248e-02    1.890e-02    2.771e-04   /
#      CHEB/ -3.181e-03   -3.774e-04   -7.135e-01   -1.999e-01   -2.847e-02  /
#      CHEB/ -8.857e-03   -3.688e-03   4.113e-03    1.943e-03    -7.522e-04  /
#      CHEB/ -3.056e-01   -7.983e-02   -2.398e-03   1.039e-02    -5.659e-03  /
#      CHEB/ -2.996e-03   1.025e-03    7.496e-04    -1.331e-01   -8.357e-02  /
#      CHEB/ -3.213e-02   1.302e-02    6.160e-03    -1.332e-03   -1.431e-03  /
#      CHEB/ -4.063e-05   -3.325e-02   -7.658e-02   -3.982e-02   -7.543e-03  /
#      CHEB/ 4.888e-03    2.824e-03    4.546e-05    -6.421e-04   -2.450e-02  /
#      CHEB/ 1.606e-02    -3.002e-02   -1.400e-02   -2.167e-03   1.249e-03   /
#      CHEB/ 1.043e-03    1.519e-04    2.415e-03    2.718e-02    6.132e-03   /
#      CHEB/ -7.386e-03   -4.401e-03   -1.090e-03   2.518e-04    3.664e-04   /
#  aQOOH[O](+M) <=> aQOOHg(+M)                         1.000e+00 0.000     0.000
#      TCHEB/ 180.000   1500.000 /
#      PCHEB/ 0.010     98.692   /
#      CHEB/ 10 8/
#      CHEB/ -2.465e+00   2.954e+00    -7.139e-01   1.841e-01    -7.491e-04  /
#      CHEB/ -1.951e-02   8.992e-03    -2.478e-03   -5.955e+00   -2.267e-01  /
#      CHEB/ 6.993e-01    -1.481e-01   -4.391e-03   2.316e-02    -9.006e-03  /
#      CHEB/ 1.644e-03    -3.846e+00   -5.005e-01   4.153e-03    1.076e-02   /
#      CHEB/ -5.587e-03   3.879e-03    -1.245e-03   1.150e-04    -1.599e+00  /
#      CHEB/ -3.318e-02   -1.515e-01   -3.274e-02   7.291e-03    3.426e-03   /
#      CHEB/ -1.265e-03   -9.307e-04   -6.139e-01   2.095e-01    -4.735e-02  /
#      CHEB/ -1.823e-02   -3.872e-03   -9.609e-04   1.880e-03    -6.566e-04  /