units(length='cm', time='s', quantity='mol', act_energy='kcal/mol')

ideal_gas(name='gas',
          elements="H D T C Ci O Oi N Ne Ar He Si S F Cl Br I X",
          species="""propene3ol       OH               disub_c4ether
                     H2O              disub_epoxy      gQOOHa
                     propene1ol       gQOOHb           ipropylOOH
                     galdoxy          galkene          CH2O
                     O2               gRO2             gQOOHg
                     gR               galdol           monosub_c4ether
                     HO2              gQOOH[O]""",
          reactions='all',
          initial_state=state(temperature=300.0, pressure=OneAtm))

#-------------------------------------------------------------------------------
# Element data
#-------------------------------------------------------------------------------

element(symbol='Ci', atomic_mass=13.003)
element(symbol='D', atomic_mass=2.014)
element(symbol='Oi', atomic_mass=18.0)
element(symbol='T', atomic_mass=3.016)
element(symbol='X', atomic_mass=195.083)
#-------------------------------------------------------------------------------
# Species data
#-------------------------------------------------------------------------------

species(name='propene3ol',
        atoms='C:3 H:6 O:1',
        thermo=(NASA([10.00, 444.81],
                     [ 3.92769709E+00,  4.89977303E-03,  1.13094874E-04,
                      -2.59008187E-07,  1.86205760E-10, -1.68741569E+04,
                       9.90805416E+00]),
                NASA([444.81, 3000.00],
                     [ 2.61720343E+00,  3.01777872E-02, -1.76511625E-05,
                       5.14864061E-09, -5.91153761E-13, -1.68910574E+04,
                       1.36683107E+01])))

species(name='OH',
        atoms='H:1 O:1',
        thermo=(NASA([10.00, 984.14],
                     [ 3.49686242E+00,  1.83973160E-04, -9.97634499E-07,
                       1.56942783E-09, -6.10128175E-13,  3.41673934E+03,
                       1.48093120E+00]),
                NASA([984.14, 3000.00],
                     [ 3.45221464E+00, -2.95124034E-04,  7.39418622E-07,
                      -2.89309866E-10,  3.53041498E-14,  3.45751599E+03,
                       1.85813897E+00])))

species(name='disub_c4ether',
        atoms='C:4 H:8 O:2',
        thermo=(NASA([10.00, 413.50],
                     [ 3.78241323E+00,  1.89501763E-02,  8.65302396E-05,
                      -1.80580575E-07,  1.13656264E-10, -3.96065628E+04,
                       1.09982450E+01]),
                NASA([413.50, 3000.00],
                     [ 4.29420885E-01,  5.13851903E-02, -3.11292293E-05,
                       9.11498284E-09, -1.03192718E-12, -3.93292685E+04,
                       2.42134976E+01])))

species(name='H2O',
        atoms='H:2 O:1',
        thermo=(NASA([10.00, 773.84],
                     [ 4.00473541E+00, -2.39729134E-04,  8.11862955E-07,
                       1.47891862E-09, -1.19783539E-12, -3.03533807E+04,
                      -9.96254147E-02]),
                NASA([773.84, 3000.00],
                     [ 3.52133374E+00,  1.05377009E-03,  6.40722099E-07,
                      -3.86240235E-10,  5.49243294E-14, -3.02424794E+04,
                       2.34173094E+00])))

species(name='disub_epoxy',
        atoms='C:4 H:8 O:2',
        thermo=(NASA([10.00, 549.41],
                     [ 3.89863211E+00,  5.97532637E-03,  1.66685676E-04,
                      -3.10743768E-07,  1.78330192E-10, -3.50582553E+04,
                       1.13847308E+01]),
                NASA([549.41, 3000.00],
                     [-6.40277648E-01,  6.05960003E-02, -4.13427220E-05,
                       1.31555461E-08, -1.57685017E-12, -3.48851384E+04,
                       2.76005436E+01])))

species(name='gQOOHa',
        atoms='C:4 H:9 O:3',
        thermo=(NASA([10.00, 160.74],
                     [ 3.80808147E+00,  2.31043884E-02,  5.26945984E-04,
                      -3.11500696E-06,  6.03881958E-09, -2.52974043E+04,
                       1.17645316E+01]),
                NASA([160.74, 3000.00],
                     [ 2.90630300E+00,  6.50241173E-02, -4.60073244E-05,
                       1.51330930E-08, -1.87074267E-12, -2.52935797E+04,
                       1.36838819E+01])))

species(name='propene1ol',
        atoms='C:3 H:6 O:1',
        thermo=(NASA([10.00, 459.42],
                     [ 3.91245344E+00,  5.85800161E-03,  1.15412006E-04,
                      -2.68014417E-07,  1.91800131E-10, -1.78330621E+04,
                       8.14807684E+00]),
                NASA([459.42, 3000.00],
                     [ 3.14049093E+00,  2.95550898E-02, -1.73843684E-05,
                       5.11506211E-09, -5.92966137E-13, -1.79412846E+04,
                       9.32215170E+00])))

species(name='gQOOHb',
        atoms='C:4 H:9 O:3',
        thermo=(NASA([10.00, 1018.67],
                     [ 3.99028351E+00,  4.29665712E-02,  2.28338778E-05,
                      -5.67914439E-08,  2.29383258E-11, -2.47696596E+04,
                       1.20326731E+01]),
                NASA([1018.67, 3000.00],
                     [ 1.38304153E+01,  3.88527019E-02, -2.19473905E-05,
                       5.78719895E-09, -5.85097740E-13, -2.85657443E+04,
                      -4.44147388E+01])))

species(name='ipropylOOH',
        atoms='C:3 H:7 O:2',
        thermo=(NASA([10.00, 405.01],
                     [ 3.30075623E+00,  7.58672756E-02, -3.35754269E-04,
                       8.05972164E-07, -6.68864582E-10,  8.44205153E+02,
                       1.43372849E+01]),
                NASA([405.01, 3000.00],
                     [ 2.51742509E+00,  3.72760950E-02, -2.12450220E-05,
                       5.83593926E-09, -6.22110649E-13,  1.28761276E+03,
                       2.20991392E+01])))

species(name='galdoxy',
        atoms='C:4 H:7 O:2',
        thermo=(NASA([10.00, 209.62],
                     [ 3.82641108E+00,  1.84758886E-02,  3.43073800E-04,
                      -1.82817005E-06,  2.98516720E-09, -1.92629484E+04,
                       1.17972706E+01]),
                NASA([209.62, 3000.00],
                     [ 4.22049016E+00,  4.03370149E-02, -2.36129482E-05,
                       6.72979114E-09, -7.47862493E-13, -1.93440181E+04,
                       8.97211724E+00])))

species(name='galkene',
        atoms='C:4 H:8 O:1',
        thermo=(NASA([10.00, 383.47],
                     [ 3.84035604E+00,  1.20378740E-02,  1.87486319E-04,
                      -5.44759148E-07,  4.80711015E-10, -2.09230215E+04,
                       1.02570291E+01]),
                NASA([383.47, 3000.00],
                     [ 4.00413385E+00,  3.79025144E-02, -2.15435710E-05,
                       6.15213311E-09, -6.97446345E-13, -2.11383108E+04,
                       6.98052628E+00])))

species(name='CH2O',
        atoms='C:1 H:2 O:1',
        thermo=(NASA([10.00, 601.31],
                     [ 4.03190845E+00, -1.93233367E-03,  8.89743345E-06,
                       2.98105926E-09, -7.90813886E-12, -1.42276270E+04,
                       3.47574660E+00]),
                NASA([601.31, 3000.00],
                     [ 1.40134195E+00,  9.48858016E-03, -4.43088317E-06,
                       9.48452194E-10, -7.43790219E-14, -1.38013869E+04,
                       1.57423780E+01])))

species(name='O2',
        atoms='O:2',
        thermo=(NASA([10.00, 605.96],
                     [ 3.50743498E+00, -4.43860349E-04,  1.45938058E-06,
                       1.61509333E-09, -2.32050052E-12, -9.24756224E+02,
                       4.72183634E+00]),
                NASA([605.96, 3000.00],
                     [ 2.87462882E+00,  2.17840991E-03, -1.18262921E-06,
                       2.86910493E-10, -2.53297146E-14, -8.19517838E+02,
                       7.69331810E+00])))

species(name='gRO2',
        atoms='C:4 H:9 O:3',
        thermo=(NASA([10.00, 177.33],
                     [ 3.70632176E+00,  3.49733664E-02,  4.64036392E-04,
                      -3.18637835E-06,  6.38178607E-09, -2.78538441E+04,
                       1.24459269E+01]),
                NASA([177.33, 3000.00],
                     [ 4.82062697E+00,  5.17179689E-02, -3.18386818E-05,
                       9.52247045E-09, -1.10180288E-12, -2.79592147E+04,
                       7.14082953E+00])))

species(name='gQOOHg',
        atoms='C:4 H:9 O:3',
        thermo=(NASA([10.00, 475.03],
                     [ 3.42273720E+00,  4.98344215E-02,  6.47820920E-05,
                      -2.49842966E-07,  1.98636537E-10, -2.18517630E+04,
                       1.41578583E+01]),
                NASA([475.03, 3000.00],
                     [ 5.94049074E+00,  5.53778585E-02, -3.71708255E-05,
                       1.17540477E-08, -1.40812095E-12, -2.23927173E+04,
                       7.09201218E-01])))

species(name='gR',
        atoms='C:4 H:9 O:1',
        thermo=(NASA([10.00, 638.24],
                     [ 3.37074633E+00,  5.17529751E-02, -6.54872940E-05,
                       6.88084237E-08, -3.21569794E-11, -1.18781461E+04,
                       1.14339669E+01]),
                NASA([638.24, 3000.00],
                     [ 3.99410860E+00,  4.06314915E-02, -2.23932510E-05,
                       6.08356263E-09, -6.49884708E-13, -1.18107714E+04,
                       9.85769960E+00])))

species(name='galdol',
        atoms='C:4 H:8 O:2',
        thermo=(NASA([10.00, 506.68],
                     [ 3.85380874E+00,  9.21272695E-03,  1.86712348E-04,
                      -3.96417049E-07,  2.55528268E-10, -4.59346205E+04,
                       1.24312743E+01]),
                NASA([506.68, 3000.00],
                     [ 1.49710213E+00,  5.65979142E-02, -3.87709084E-05,
                       1.23682052E-08, -1.48287964E-12, -4.60652299E+04,
                       1.85531759E+01])))

species(name='monosub_c4ether',
        atoms='C:4 H:8 O:2',
        thermo=(NASA([10.00, 380.36],
                     [ 3.47743996E+00,  6.08051311E-02, -2.78518945E-04,
                       8.23182713E-07, -7.87158031E-10, -3.44232729E+04,
                       1.06415154E+01]),
                NASA([380.36, 3000.00],
                     [-1.09346901E+00,  5.35985968E-02, -3.21081420E-05,
                       9.20818293E-09, -1.01830294E-12, -3.36757128E+04,
                       3.35312368E+01])))

species(name='HO2',
        atoms='H:1 O:2',
        thermo=(NASA([10.00, 891.11],
                     [ 4.02887004E+00, -1.75769289E-03,  1.08726004E-05,
                      -1.13812972E-08,  3.90113097E-12,  4.95165001E+02,
                       4.69302008E+00]),
                NASA([891.11, 3000.00],
                     [ 3.06571044E+00,  4.28505005E-03, -2.19325920E-06,
                       5.58882699E-10, -5.61246669E-14,  5.98557610E+02,
                       8.84564156E+00])))

species(name='gQOOH[O]',
        atoms='C:4 H:9 O:3',
        thermo=(NASA([10.00, 535.23],
                     [ 3.83107445E+00,  1.02302002E-02,  2.29377261E-04,
                      -4.59095575E-07,  2.77765018E-10, -1.92483261E+04,
                       1.41034859E+01]),
                NASA([535.23, 3000.00],
                     [-4.19283096E-01,  7.69784620E-02, -5.57279000E-05,
                       1.81378295E-08, -2.18295635E-12, -1.92944394E+04,
                       2.72711816E+01])))

#-------------------------------------------------------------------------------
# Reaction data
#-------------------------------------------------------------------------------

# Reaction 1
chebyshev_reaction('gQOOH[O] (+ M) <=> gRO2 (+ M)',
                   Tmin=180.0, Tmax=1500.0,
                   Pmin=(0.01, 'atm'), Pmax=(98.692, 'atm'),
                   coeffs=[[ 5.29800e+00,  1.28700e+00, -1.13900e-01, -8.82900e-03,  8.38100e-04,  5.56700e-04, -1.35900e-04,  2.83300e-05],
                           [-3.79000e+00,  8.85100e-01,  8.86600e-02, -8.79100e-03, -7.15100e-03, -1.21700e-03,  5.99600e-04,  3.05600e-04],
                           [-3.25400e+00, -9.31600e-02,  1.70200e-02,  2.14800e-02,  2.02800e-03, -1.22900e-03, -3.33000e-04,  1.22100e-04],
                           [-1.81900e+00, -1.82500e-01, -4.73900e-02, -4.29800e-03,  4.10100e-03,  1.90500e-03,  2.07800e-04, -1.04000e-04],
                           [-9.26100e-01, -8.27300e-02, -2.46500e-02, -9.89700e-03, -1.25100e-03,  7.68800e-04,  5.50500e-04,  1.35700e-04],
                           [-4.58700e-01, -5.13600e-02,  1.16400e-04,  8.98300e-04,  1.80400e-04, -4.58400e-04, -1.29100e-04,  3.58700e-05],
                           [-2.21800e-01, -5.87300e-02, -4.01200e-03,  4.92200e-03,  2.94400e-03,  5.38700e-04, -2.57600e-04, -1.80300e-04],
                           [-8.64200e-02, -5.60000e-02, -1.50700e-02,  2.70400e-04,  2.29800e-03,  1.05600e-03,  1.44300e-04, -9.42700e-05],
                           [-1.42600e-02, -3.15500e-02, -1.82000e-02, -3.41400e-03, -6.27500e-05,  3.97700e-04,  1.88600e-04,  4.78900e-05],
                           [ 2.42600e-02, -2.98900e-03, -1.16900e-02, -3.69700e-03, -1.11600e-03, -3.00900e-04, -4.75300e-05,  2.43100e-05]])

# Reaction 2
chebyshev_reaction('gQOOHa (+ M) <=> gRO2 (+ M)',
                   Tmin=180.0, Tmax=1500.0,
                   Pmin=(0.01, 'atm'), Pmax=(98.692, 'atm'),
                   coeffs=[[ 2.91900e+00,  5.83800e-01, -2.12900e-02,  8.58300e-03,  5.81400e-04,  3.42900e-05, -3.84800e-05,  4.27300e-06],
                           [ 6.31000e-02,  9.35100e-01, -1.37700e-04,  1.00600e-02,  2.01400e-03, -4.86900e-05, -4.13900e-05, -1.49700e-05],
                           [-2.77000e+00,  4.15800e-01,  7.00800e-02,  2.61700e-03,  1.78400e-03,  1.54300e-04, -6.88100e-05, -3.79800e-05],
                           [-1.96600e+00, -5.37700e-02,  8.47000e-02,  7.11100e-03,  1.72100e-04,  3.26700e-04, -5.54100e-05, -5.17800e-05],
                           [-1.23200e+00, -2.69500e-01,  3.29100e-02,  1.48800e-02,  2.40100e-04,  2.27900e-05,  1.55200e-05, -2.85300e-05],
                           [-5.72400e-01, -2.52000e-01, -2.98800e-02,  1.17400e-02,  2.52500e-03, -1.79500e-04,  9.29400e-06,  3.23700e-05],
                           [-2.32600e-01, -1.34700e-01, -5.46900e-02, -1.36500e-03,  3.56700e-03,  3.75100e-04, -3.16100e-05,  6.31400e-05],
                           [-3.40200e-02, -2.97200e-02, -3.86700e-02, -1.17300e-02,  1.23000e-03,  1.09200e-03,  9.65400e-05,  2.43500e-05],
                           [ 1.82500e-02,  2.20700e-02, -9.23500e-03, -1.10100e-02, -2.34100e-03,  9.03400e-04,  3.31400e-04, -2.05400e-05],
                           [ 3.69700e-02,  3.07900e-02,  9.30400e-03, -2.46200e-03, -3.58900e-03, -2.28800e-04,  3.32300e-04, -7.69000e-06]])

# Reaction 3
chebyshev_reaction('gQOOHg (+ M) <=> gRO2 (+ M)',
                   Tmin=180.0, Tmax=1500.0,
                   Pmin=(0.01, 'atm'), Pmax=(98.692, 'atm'),
                   coeffs=[[ 3.34000e+00,  6.89000e-01, -3.41100e-02,  1.89200e-02, -9.79200e-04, -7.17600e-04,  1.78300e-05, -1.85500e-06],
                           [-1.70600e-01,  1.11000e+00, -8.86100e-03,  2.38800e-02,  3.72400e-04, -1.41300e-03, -6.11700e-05, -5.71300e-06],
                           [-3.11100e+00,  5.34700e-01,  8.02300e-02,  9.32500e-03,  1.12800e-03, -5.47300e-04, -3.03700e-04, -3.16600e-05],
                           [-2.22000e+00,  3.06800e-02,  9.21100e-02,  1.43100e-02, -5.60300e-04,  3.58200e-05, -2.41300e-04, -9.43900e-05],
                           [-1.29200e+00, -2.17300e-01,  3.16700e-02,  2.23600e-02,  7.80200e-04, -4.18300e-04, -1.92700e-05, -6.48500e-05],
                           [-6.33900e-01, -2.38500e-01, -3.43600e-02,  1.60200e-02,  4.82300e-03, -4.54900e-04, -5.53300e-05,  3.47700e-05],
                           [-2.43900e-01, -1.46500e-01, -6.10200e-02, -6.46700e-04,  6.25400e-03,  8.02400e-04, -1.51900e-04,  1.88300e-05],
                           [-4.99800e-02, -4.23200e-02, -4.74200e-02, -1.33400e-02,  2.95200e-03,  2.09600e-03,  9.52700e-05, -1.20200e-04],
                           [ 2.27300e-02,  2.19600e-02, -1.70200e-02, -1.41300e-02, -2.00200e-03,  1.86800e-03,  5.35900e-04, -1.78500e-04],
                           [ 3.94900e-02,  4.02400e-02,  6.87600e-03, -5.83400e-03, -4.50800e-03,  1.64100e-04,  6.38400e-04, -3.88100e-05]])

# Reaction 4
chebyshev_reaction('gQOOHb (+ M) <=> gRO2 (+ M)',
                   Tmin=180.0, Tmax=1500.0,
                   Pmin=(0.01, 'atm'), Pmax=(98.692, 'atm'),
                   coeffs=[[-3.54900e+00,  1.28600e+00, -4.00400e-02, -1.67900e-02, -2.22000e-03,  1.80700e-03,  3.05200e-04, -1.66300e-04],
                           [ 2.48400e+00,  1.83800e+00,  6.61500e-03, -1.55800e-02, -4.93300e-03,  1.40300e-03,  4.42500e-04, -9.90100e-05],
                           [-2.16600e+00,  4.91400e-01,  9.51100e-02,  2.93200e-02, -4.60400e-03, -2.34700e-03, -2.17300e-05,  2.64600e-04],
                           [-1.89600e+00, -2.75200e-01,  5.37900e-02,  4.70900e-02,  2.34900e-03, -3.18000e-03, -5.43600e-04,  2.75500e-04],
                           [-1.20000e+00, -3.17100e-01, -2.32300e-02,  1.89500e-02,  8.11900e-03, -1.04100e-04, -5.55700e-04, -4.66800e-05],
                           [-5.89700e-01, -1.28200e-01, -4.66900e-02, -1.19800e-02,  5.37900e-03,  2.29600e-03,  4.61600e-05, -2.04100e-04],
                           [-2.54500e-01, -2.28800e-02, -3.12600e-02, -1.64600e-02,  2.02500e-05,  1.38000e-03,  3.57300e-04, -2.72500e-05],
                           [-6.64700e-02, -4.08400e-03, -1.31900e-02, -6.48400e-03, -1.74500e-03, -3.41900e-04,  5.69100e-05,  1.07300e-04],
                           [ 4.14900e-03, -7.34000e-04, -3.69400e-03,  7.75100e-04, -1.02500e-03, -6.31500e-04, -2.02200e-04,  2.02600e-05],
                           [ 2.63800e-02,  6.28900e-03, -1.91600e-04,  1.96700e-03, -1.75000e-04, -8.84500e-05, -1.19600e-04, -7.92900e-05]])

# Reaction 5
chebyshev_reaction('O2 + gR (+ M) <=> gRO2 (+ M)',
                   Tmin=180.0, Tmax=1500.0,
                   Pmin=(0.01, 'atm'), Pmax=(98.692, 'atm'),
                   coeffs=[[ 1.17400e+01,  5.92000e-01, -6.91100e-02,  1.22200e-02, -3.56800e-03,  9.28700e-04, -2.47000e-04,  3.98100e-05],
                           [-2.59300e+00,  9.54400e-01, -6.37800e-02,  3.50100e-03, -8.73500e-04, -1.71000e-04,  1.70700e-04, -7.39600e-05],
                           [-1.73600e+00,  5.48200e-01,  2.26000e-02, -7.89900e-03,  6.21800e-04, -2.97800e-04,  7.64300e-05,  2.74000e-06],
                           [-1.15100e+00,  2.04900e-01,  5.44600e-02, -3.59300e-03, -3.07600e-04, -1.71900e-04,  4.99800e-05, -2.72300e-06],
                           [-7.22300e-01,  5.95500e-03,  4.15600e-02,  3.05700e-03,  3.38200e-05, -2.63200e-04,  4.01800e-05, -1.76900e-06],
                           [-4.16700e-01, -7.66700e-02,  1.66800e-02,  4.57300e-03,  1.08500e-03, -1.36000e-04, -2.27200e-05,  6.01800e-06],
                           [-2.08700e-01, -9.08100e-02, -2.61000e-03,  2.70000e-03,  1.37800e-03,  1.61300e-04, -4.62300e-05, -1.43200e-06],
                           [-7.68800e-02, -7.12300e-02, -1.28200e-02,  4.39500e-04,  9.11400e-04,  2.95300e-04, -9.76000e-06, -9.51400e-06],
                           [-3.26000e-03, -3.91500e-02, -1.54600e-02, -1.09600e-03,  2.78800e-04,  2.09900e-04,  2.00100e-05, -6.50100e-06],
                           [ 2.88200e-02, -8.02700e-03, -1.26100e-02, -1.96600e-03, -2.05900e-04,  4.08800e-05,  2.10100e-05, -2.04500e-06]])
#  gRO2(+M) <=> gQOOH[O](+M)                           1.000e+00 0.000     0.000
#      TCHEB/ 180.000   1500.000 /
#      PCHEB/ 0.010     98.692   /
#      CHEB/ 10 8/
#      CHEB/ -6.815e+00   1.287e+00    -1.139e-01   -8.829e-03   8.381e-04   /
#      CHEB/ 5.567e-04    -1.359e-04   2.833e-05    5.082e+00    8.851e-01   /
#      CHEB/ 8.866e-02    -8.791e-03   -7.151e-03   -1.217e-03   5.996e-04   /
#      CHEB/ 3.056e-04    -3.081e+00   -9.316e-02   1.702e-02    2.148e-02   /
#      CHEB/ 2.028e-03    -1.229e-03   -3.330e-04   1.221e-04    -1.694e+00  /
#      CHEB/ -1.825e-01   -4.739e-02   -4.298e-03   4.101e-03    1.905e-03   /
#      CHEB/ 2.078e-04    -1.040e-04   -8.725e-01   -8.273e-02   -2.465e-02  /
#      CHEB/ -9.897e-03   -1.251e-03   7.688e-04    5.505e-04    1.357e-04   /
#      CHEB/ -4.396e-01   -5.136e-02   1.164e-04    8.983e-04    1.804e-04   /
#      CHEB/ -4.584e-04   -1.291e-04   3.587e-05    -2.156e-01   -5.873e-02  /
#      CHEB/ -4.012e-03   4.922e-03    2.944e-03    5.387e-04    -2.576e-04  /
#      CHEB/ -1.803e-04   -8.450e-02   -5.600e-02   -1.507e-02   2.704e-04   /
#      CHEB/ 2.298e-03    1.056e-03    1.443e-04    -9.427e-05   -1.380e-02  /
#      CHEB/ -3.155e-02   -1.820e-02   -3.414e-03   -6.275e-05   3.977e-04   /
#      CHEB/ 1.886e-04    4.789e-05    2.423e-02    -2.989e-03   -1.169e-02  /
#      CHEB/ -3.697e-03   -1.116e-03   -3.009e-04   -4.753e-05   2.431e-05   /

# Reaction 6
chebyshev_reaction('gQOOHa (+ M) <=> gQOOH[O] (+ M)',
                   Tmin=180.0, Tmax=1500.0,
                   Pmin=(0.01, 'atm'), Pmax=(98.692, 'atm'),
                   coeffs=[[-7.35300e+00,  2.20400e-01, -1.63100e-01, -1.22600e-02, -2.49900e-03,  1.38800e-03,  4.46700e-05,  7.46300e-05],
                           [ 2.64600e+00,  1.65500e+00,  1.49300e-01,  3.48900e-03, -1.13700e-02, -3.46000e-03,  8.92300e-04,  5.34500e-04],
                           [-3.53100e+00,  2.06700e-02,  7.37300e-02,  2.54900e-02,  7.68400e-03, -2.65600e-05, -8.40400e-04, -1.40400e-04],
                           [-2.08000e+00, -3.00700e-01, -5.54300e-03, -5.95800e-03,  4.21000e-03,  4.30600e-03,  7.51200e-04, -2.69900e-04],
                           [-1.05000e+00, -2.55200e-01, -4.01800e-03, -2.15100e-03, -5.09900e-03,  7.99000e-04,  1.14500e-03,  2.38000e-04],
                           [-4.71700e-01, -1.68300e-01, -1.22100e-02,  1.10200e-02, -6.71200e-04, -1.64700e-03, -1.02800e-04,  1.40400e-04],
                           [-1.74700e-01, -9.82200e-02, -2.86400e-02,  5.95700e-03,  4.68100e-03,  1.49800e-04, -4.69200e-04, -1.18300e-04],
                           [-4.29300e-02, -3.69800e-02, -3.00000e-02, -6.72300e-03,  2.95500e-03,  1.69800e-03,  1.51800e-04, -8.49900e-05],
                           [ 1.20600e-02, -4.20600e-04, -1.33800e-02, -1.00700e-02, -1.95800e-03,  1.13700e-03,  4.91800e-04,  1.62800e-05],
                           [ 2.66100e-02,  1.36100e-02,  3.24500e-03, -3.44300e-03, -3.69000e-03, -4.08200e-04,  2.83800e-04,  2.44500e-06]])

# Reaction 7
chebyshev_reaction('gQOOHg (+ M) <=> gQOOH[O] (+ M)',
                   Tmin=180.0, Tmax=1500.0,
                   Pmin=(0.01, 'atm'), Pmax=(98.692, 'atm'),
                   coeffs=[[-5.38600e+00,  6.89100e-01, -1.93600e-01, -2.89000e-02, -1.55100e-03,  1.25500e-03,  6.11000e-04, -8.32300e-06],
                           [ 3.46800e-01,  1.48900e+00,  2.15900e-01,  3.99400e-02, -1.92400e-02, -7.07700e-03,  5.07500e-04,  9.24400e-04],
                           [-3.46000e+00,  4.00600e-02,  3.26000e-02,  4.19000e-02,  1.46100e-02, -3.07700e-04, -1.73200e-03, -4.20500e-04],
                           [-2.18500e+00, -1.51800e-01, -2.90600e-02, -1.03700e-02,  6.23800e-03,  5.47300e-03,  9.41900e-04, -4.23000e-04],
                           [-1.15700e+00, -1.62100e-01,  9.48500e-03, -4.77000e-03, -6.39400e-03,  6.38700e-04,  1.39800e-03,  3.06600e-04],
                           [-5.39200e-01, -1.43000e-01, -1.49100e-03,  1.61300e-02, -4.52600e-04, -2.54100e-03, -1.54500e-04,  2.49700e-04],
                           [-2.01500e-01, -1.12100e-01, -3.05800e-02,  1.02300e-02,  7.68000e-03, -1.66800e-04, -7.70200e-04, -9.82100e-05],
                           [-5.16900e-02, -4.85700e-02, -4.27800e-02, -6.64400e-03,  6.06600e-03,  2.60100e-03, -9.55200e-05, -2.46100e-04],
                           [ 1.06200e-02, -1.50600e-03, -2.43500e-02, -1.45400e-02, -5.56200e-04,  2.55600e-03,  5.84100e-04, -2.19600e-04],
                           [ 2.39700e-02,  2.37200e-02, -9.60700e-04, -8.58000e-03, -4.60800e-03,  4.53000e-04,  6.88700e-04, -8.42400e-05]])

# Reaction 8
chebyshev_reaction('gQOOHb (+ M) <=> gQOOH[O] (+ M)',
                   Tmin=180.0, Tmax=1500.0,
                   Pmin=(0.01, 'atm'), Pmax=(98.692, 'atm'),
                   coeffs=[[-1.28500e+01,  1.36900e+00, -1.65500e-01, -5.42600e-02, -9.59700e-03,  1.07100e-03,  9.75700e-04,  3.73900e-04],
                           [ 3.92600e+00,  2.27300e+00,  2.24000e-01, -1.23000e-03, -1.86600e-02, -4.11900e-03,  2.05700e-04,  4.34000e-04],
                           [-2.92400e+00, -2.16200e-01,  1.26500e-02,  5.91100e-02,  1.36700e-02,  1.94100e-03, -1.06900e-03, -7.52900e-04],
                           [-1.87000e+00, -4.44700e-01, -8.70200e-02,  1.08000e-02,  7.28100e-03,  3.02700e-03,  1.62000e-03,  2.57800e-04],
                           [-9.94200e-01, -1.71300e-01, -3.04100e-02, -8.65100e-03, -4.24100e-03, -1.20500e-03,  9.73300e-04,  7.79500e-04],
                           [-4.89500e-01, -2.31600e-02,  1.10900e-03, -3.82500e-03,  1.84800e-04, -1.39200e-03, -7.30000e-04, -2.71300e-05],
                           [-2.23100e-01, -1.07000e-02, -3.77100e-03, -6.44400e-04,  4.36500e-03,  1.01700e-03, -7.49400e-04, -4.54500e-04],
                           [-7.87600e-02, -1.91300e-02, -1.36300e-02, -1.97200e-03,  2.78000e-03,  1.33700e-03,  8.21200e-05, -1.76400e-04],
                           [-3.42600e-03, -1.99700e-02, -1.35900e-02, -2.34000e-03, -4.80100e-04,  4.33500e-04,  2.93400e-04,  8.02500e-05],
                           [ 1.13300e-02, -8.60600e-03, -8.32000e-03, -1.61300e-03, -1.20700e-03, -2.00700e-04,  7.13200e-05,  3.90300e-05]])

# Reaction 9
chebyshev_reaction('O2 + gR (+ M) <=> gQOOH[O] (+ M)',
                   Tmin=180.0, Tmax=1500.0,
                   Pmin=(0.01, 'atm'), Pmax=(98.692, 'atm'),
                   coeffs=[[ 3.71600e+00,  1.41500e+00, -4.78600e-02, -8.02600e-02, -5.32000e-02, -7.30800e-03,  7.70200e-03,  5.70600e-03],
                           [-2.99400e+00,  3.60500e-01,  1.62500e-02,  1.09300e-01,  3.80400e-02, -1.60600e-03, -1.20400e-02, -5.78500e-03],
                           [-1.91900e+00,  1.10600e-01, -1.17200e-01, -1.55200e-02,  1.78700e-02,  1.11500e-02,  3.20100e-03, -1.16800e-03],
                           [-1.07900e+00,  1.08900e-01, -4.66600e-02, -4.81200e-02, -8.29300e-03,  4.30300e-03,  4.58100e-03,  1.49300e-03],
                           [-5.81800e-01,  9.54100e-02,  4.92300e-02, -1.44000e-02, -1.19900e-02, -4.39800e-03,  1.37900e-04,  1.14800e-03],
                           [-3.21200e-01,  2.43600e-02,  5.77000e-02,  1.53300e-02, -1.05500e-03, -3.62400e-03, -1.80800e-03, -2.81800e-04],
                           [-1.69600e-01, -6.13600e-02,  2.40400e-02,  1.58500e-02,  6.17200e-03,  5.65500e-04, -9.16500e-04, -6.70800e-04],
                           [-8.47300e-02, -8.30900e-02, -1.36200e-02,  5.77200e-03,  4.81200e-03,  2.03700e-03,  2.79600e-04, -2.26900e-04],
                           [-1.91300e-02, -6.53900e-02, -2.66000e-02, -3.82300e-03,  1.00600e-03,  1.32600e-03,  5.99200e-04,  1.16700e-04],
                           [ 1.56200e-02, -2.42000e-02, -2.17800e-02, -5.72700e-03, -1.28400e-03,  1.17100e-05,  2.19100e-04,  1.43800e-04]])
#  gRO2(+M) <=> gQOOHa(+M)                             1.000e+00 0.000     0.000
#      TCHEB/ 180.000   1500.000 /
#      PCHEB/ 0.010     98.692   /
#      CHEB/ 10 8/
#      CHEB/ -8.440e-01   5.838e-01    -2.129e-02   8.583e-03    5.814e-04   /
#      CHEB/ 3.429e-05    -3.848e-05   4.273e-06    2.997e+00    9.351e-01   /
#      CHEB/ -1.377e-04   1.006e-02    2.014e-03    -4.869e-05   -4.139e-05  /
#      CHEB/ -1.497e-05   -2.609e+00   4.158e-01    7.008e-02    2.617e-03   /
#      CHEB/ 1.784e-03    1.543e-04    -6.881e-05   -3.798e-05   -1.892e+00  /
#      CHEB/ -5.377e-02   8.470e-02    7.111e-03    1.721e-04    3.267e-04   /
#      CHEB/ -5.541e-05   -5.178e-05   -1.203e+00   -2.695e-01   3.291e-02   /
#      CHEB/ 1.488e-02    2.401e-04    2.279e-05    1.552e-05    -2.853e-05  /
#      CHEB/ -5.626e-01   -2.520e-01   -2.988e-02   1.174e-02    2.525e-03   /
#      CHEB/ -1.795e-04   9.294e-06    3.237e-05    -2.296e-01   -1.347e-01  /
#      CHEB/ -5.469e-02   -1.365e-03   3.567e-03    3.751e-04    -3.161e-05  /
#      CHEB/ 6.314e-05    -3.339e-02   -2.972e-02   -3.867e-02   -1.173e-02  /
#      CHEB/ 1.230e-03    1.092e-03    9.654e-05    2.435e-05    1.825e-02   /
#      CHEB/ 2.207e-02    -9.235e-03   -1.101e-02   -2.341e-03   9.034e-04   /
#      CHEB/ 3.314e-04    -2.054e-05   3.685e-02    3.079e-02    9.304e-03   /
#      CHEB/ -2.462e-03   -3.589e-03   -2.288e-04   3.323e-04    -7.690e-06  /
#  gQOOH[O](+M) <=> gQOOHa(+M)                         1.000e+00 0.000     0.000
#      TCHEB/ 180.000   1500.000 /
#      PCHEB/ 0.010     98.692   /
#      CHEB/ 10 8/
#      CHEB/ 9.971e-01    2.204e-01    -1.631e-01   -1.226e-02   -2.499e-03  /
#      CHEB/ 1.388e-03    4.467e-05    7.463e-05    -3.292e+00   1.655e+00   /
#      CHEB/ 1.493e-01    3.489e-03    -1.137e-02   -3.460e-03   8.923e-04   /
#      CHEB/ 5.345e-04    -3.543e+00   2.067e-02    7.373e-02    2.549e-02   /
#      CHEB/ 7.684e-03    -2.656e-05   -8.404e-04   -1.404e-04   -2.130e+00  /
#      CHEB/ -3.007e-01   -5.543e-03   -5.958e-03   4.210e-03    4.306e-03   /
#      CHEB/ 7.512e-04    -2.699e-04   -1.075e+00   -2.552e-01   -4.018e-03  /
#      CHEB/ -2.151e-03   -5.099e-03   7.990e-04    1.145e-03    2.380e-04   /
#      CHEB/ -4.810e-01   -1.683e-01   -1.221e-02   1.102e-02    -6.712e-04  /
#      CHEB/ -1.647e-03   -1.028e-04   1.404e-04    -1.780e-01   -9.822e-02  /
#      CHEB/ -2.864e-02   5.957e-03    4.681e-03    1.498e-04    -4.692e-04  /
#      CHEB/ -1.183e-04   -4.422e-02   -3.698e-02   -3.000e-02   -6.723e-03  /
#      CHEB/ 2.955e-03    1.698e-03    1.518e-04    -8.499e-05   1.160e-02   /
#      CHEB/ -4.206e-04   -1.338e-02   -1.007e-02   -1.958e-03   1.137e-03   /