units(length='cm', time='s', quantity='mol', act_energy='kcal/mol')

ideal_gas(name='gas',
          elements="H D T C Ci O Oi N Ne Ar He Si S F Cl Br I X",
          species="""propene3ol       OH               disub_c4ether
                     H2O              disub_epoxy      gQOOHa
                     propene1ol       gQOOHb           ipropylOOH
                     galdoxy          galkene          CH2O
                     O2               gRO2             gQOOHg
                     gR               galdol           monosub_c4ether
                     HO2              gQOOH[O]""",
          reactions='all',
          initial_state=state(temperature=300.0, pressure=OneAtm))

#-------------------------------------------------------------------------------
# Element data
#-------------------------------------------------------------------------------

element(symbol='Ci', atomic_mass=13.003)
element(symbol='D', atomic_mass=2.014)
element(symbol='Oi', atomic_mass=18.0)
element(symbol='T', atomic_mass=3.016)
element(symbol='X', atomic_mass=195.083)
#-------------------------------------------------------------------------------
# Species data
#-------------------------------------------------------------------------------

species(name='propene3ol',
        atoms='C:3 H:6 O:1',
        thermo=(NASA([10.00, 444.81],
                     [ 3.92769709E+00,  4.89977303E-03,  1.13094874E-04,
                      -2.59008187E-07,  1.86205760E-10, -1.53823528E+04,
                       9.90805416E+00]),
                NASA([444.81, 3000.00],
                     [ 2.61720343E+00,  3.01777872E-02, -1.76511625E-05,
                       5.14864061E-09, -5.91153761E-13, -1.53992533E+04,
                       1.36683107E+01])))

species(name='OH',
        atoms='H:1 O:1',
        thermo=(NASA([10.00, 984.14],
                     [ 3.49686242E+00,  1.83973160E-04, -9.97634499E-07,
                       1.56942783E-09, -6.10128175E-13,  3.41673934E+03,
                       1.48093120E+00]),
                NASA([984.14, 3000.00],
                     [ 3.45221464E+00, -2.95124034E-04,  7.39418622E-07,
                      -2.89309866E-10,  3.53041498E-14,  3.45751599E+03,
                       1.85813897E+00])))

species(name='disub_c4ether',
        atoms='C:4 H:8 O:2',
        thermo=(NASA([10.00, 413.50],
                     [ 3.78241323E+00,  1.89501763E-02,  8.65302396E-05,
                      -1.80580575E-07,  1.13656264E-10, -3.97884553E+04,
                       1.09982450E+01]),
                NASA([413.50, 3000.00],
                     [ 4.29420885E-01,  5.13851903E-02, -3.11292293E-05,
                       9.11498284E-09, -1.03192718E-12, -3.95111609E+04,
                       2.42134976E+01])))

species(name='H2O',
        atoms='H:2 O:1',
        thermo=(NASA([10.00, 773.84],
                     [ 4.00473541E+00, -2.39729134E-04,  8.11862955E-07,
                       1.47891862E-09, -1.19783539E-12, -3.03533807E+04,
                      -9.96254147E-02]),
                NASA([773.84, 3000.00],
                     [ 3.52133374E+00,  1.05377009E-03,  6.40722099E-07,
                      -3.86240235E-10,  5.49243294E-14, -3.02424794E+04,
                       2.34173094E+00])))

species(name='disub_epoxy',
        atoms='C:4 H:8 O:2',
        thermo=(NASA([10.00, 549.41],
                     [ 3.89863211E+00,  5.97532637E-03,  1.66685676E-04,
                      -3.10743768E-07,  1.78330192E-10, -3.61325140E+04,
                       1.13847308E+01]),
                NASA([549.41, 3000.00],
                     [-6.40277648E-01,  6.05960003E-02, -4.13427220E-05,
                       1.31555461E-08, -1.57685017E-12, -3.59593971E+04,
                       2.76005436E+01])))

species(name='gQOOHa',
        atoms='C:4 H:9 O:3',
        thermo=(NASA([10.00, 160.74],
                     [ 3.80808147E+00,  2.31043884E-02,  5.26945984E-04,
                      -3.11500696E-06,  6.03881958E-09, -2.32298071E+04,
                       1.17645316E+01]),
                NASA([160.74, 3000.00],
                     [ 2.90630300E+00,  6.50241173E-02, -4.60073244E-05,
                       1.51330930E-08, -1.87074267E-12, -2.32259825E+04,
                       1.36838819E+01])))

species(name='propene1ol',
        atoms='C:3 H:6 O:1',
        thermo=(NASA([10.00, 459.42],
                     [ 3.91245344E+00,  5.85800161E-03,  1.15412006E-04,
                      -2.68014417E-07,  1.91800131E-10, -1.84593098E+04,
                       8.14807684E+00]),
                NASA([459.42, 3000.00],
                     [ 3.14049093E+00,  2.95550898E-02, -1.73843684E-05,
                       5.11506211E-09, -5.92966137E-13, -1.85675323E+04,
                       9.32215170E+00])))

species(name='gQOOHb',
        atoms='C:4 H:9 O:3',
        thermo=(NASA([10.00, 1018.67],
                     [ 3.99028351E+00,  4.29665712E-02,  2.28338778E-05,
                      -5.67914439E-08,  2.29383258E-11, -2.35629794E+04,
                       1.20326731E+01]),
                NASA([1018.67, 3000.00],
                     [ 1.38304153E+01,  3.88527019E-02, -2.19473905E-05,
                       5.78719895E-09, -5.85097740E-13, -2.73590642E+04,
                      -4.44147388E+01])))

species(name='ipropylOOH',
        atoms='C:3 H:7 O:2',
        thermo=(NASA([10.00, 405.01],
                     [ 3.30075623E+00,  7.58672756E-02, -3.35754269E-04,
                       8.05972164E-07, -6.68864582E-10, -3.99974218E+02,
                       1.43372849E+01]),
                NASA([405.01, 3000.00],
                     [ 2.51742509E+00,  3.72760950E-02, -2.12450220E-05,
                       5.83593926E-09, -6.22110649E-13,  4.34333882E+01,
                       2.20991392E+01])))

species(name='galdoxy',
        atoms='C:4 H:7 O:2',
        thermo=(NASA([10.00, 209.62],
                     [ 3.82641108E+00,  1.84758886E-02,  3.43073800E-04,
                      -1.82817005E-06,  2.98516720E-09, -1.87027487E+04,
                       1.17972706E+01]),
                NASA([209.62, 3000.00],
                     [ 4.22049016E+00,  4.03370149E-02, -2.36129482E-05,
                       6.72979114E-09, -7.47862493E-13, -1.87838184E+04,
                       8.97211724E+00])))

species(name='galkene',
        atoms='C:4 H:8 O:1',
        thermo=(NASA([10.00, 383.47],
                     [ 3.84035604E+00,  1.20378740E-02,  1.87486319E-04,
                      -5.44759148E-07,  4.80711015E-10, -2.08920677E+04,
                       1.02570291E+01]),
                NASA([383.47, 3000.00],
                     [ 4.00413385E+00,  3.79025144E-02, -2.15435710E-05,
                       6.15213311E-09, -6.97446345E-13, -2.11073571E+04,
                       6.98052628E+00])))

species(name='CH2O',
        atoms='C:1 H:2 O:1',
        thermo=(NASA([10.00, 601.31],
                     [ 4.03190845E+00, -1.93233367E-03,  8.89743345E-06,
                       2.98105926E-09, -7.90813886E-12, -1.42276270E+04,
                       3.47574660E+00]),
                NASA([601.31, 3000.00],
                     [ 1.40134195E+00,  9.48858016E-03, -4.43088317E-06,
                       9.48452194E-10, -7.43790219E-14, -1.38013869E+04,
                       1.57423780E+01])))

species(name='O2',
        atoms='O:2',
        thermo=(NASA([10.00, 605.96],
                     [ 3.50743498E+00, -4.43860349E-04,  1.45938058E-06,
                       1.61509333E-09, -2.32050052E-12, -9.24756224E+02,
                       4.72183634E+00]),
                NASA([605.96, 3000.00],
                     [ 2.87462882E+00,  2.17840991E-03, -1.18262921E-06,
                       2.86910493E-10, -2.53297146E-14, -8.19517838E+02,
                       7.69331810E+00])))

species(name='gRO2',
        atoms='C:4 H:9 O:3',
        thermo=(NASA([10.00, 177.33],
                     [ 3.70632176E+00,  3.49733664E-02,  4.64036392E-04,
                      -3.18637835E-06,  6.38178607E-09, -3.04777624E+04,
                       1.24459269E+01]),
                NASA([177.33, 3000.00],
                     [ 4.82062697E+00,  5.17179689E-02, -3.18386818E-05,
                       9.52247045E-09, -1.10180288E-12, -3.05831329E+04,
                       7.14082953E+00])))

species(name='gQOOHg',
        atoms='C:4 H:9 O:3',
        thermo=(NASA([10.00, 475.03],
                     [ 3.42273720E+00,  4.98344215E-02,  6.47820920E-05,
                      -2.49842966E-07,  1.98636537E-10, -2.08841098E+04,
                       1.41578583E+01]),
                NASA([475.03, 3000.00],
                     [ 5.94049074E+00,  5.53778585E-02, -3.71708255E-05,
                       1.17540477E-08, -1.40812095E-12, -2.14250641E+04,
                       7.09201218E-01])))

species(name='gR',
        atoms='C:4 H:9 O:1',
        thermo=(NASA([10.00, 638.24],
                     [ 3.37074633E+00,  5.17529751E-02, -6.54872940E-05,
                       6.88084237E-08, -3.21569794E-11, -1.03989395E+04,
                       1.14339669E+01]),
                NASA([638.24, 3000.00],
                     [ 3.99410860E+00,  4.06314915E-02, -2.23932510E-05,
                       6.08356263E-09, -6.49884708E-13, -1.03315648E+04,
                       9.85769960E+00])))

species(name='galdol',
        atoms='C:4 H:8 O:2',
        thermo=(NASA([10.00, 506.68],
                     [ 3.85380874E+00,  9.21272695E-03,  1.86712348E-04,
                      -3.96417049E-07,  2.55528268E-10, -4.49077175E+04,
                       1.24312743E+01]),
                NASA([506.68, 3000.00],
                     [ 1.49710213E+00,  5.65979142E-02, -3.87709084E-05,
                       1.23682052E-08, -1.48287964E-12, -4.50383268E+04,
                       1.85531759E+01])))

species(name='monosub_c4ether',
        atoms='C:4 H:8 O:2',
        thermo=(NASA([10.00, 380.36],
                     [ 3.47743996E+00,  6.08051311E-02, -2.78518945E-04,
                       8.23182713E-07, -7.87158031E-10, -3.33881662E+04,
                       1.06415154E+01]),
                NASA([380.36, 3000.00],
                     [-1.09346901E+00,  5.35985968E-02, -3.21081420E-05,
                       9.20818293E-09, -1.01830294E-12, -3.26406062E+04,
                       3.35312368E+01])))

species(name='HO2',
        atoms='H:1 O:2',
        thermo=(NASA([10.00, 891.11],
                     [ 4.02887004E+00, -1.75769289E-03,  1.08726004E-05,
                      -1.13812972E-08,  3.90113097E-12,  4.95165001E+02,
                       4.69302008E+00]),
                NASA([891.11, 3000.00],
                     [ 3.06571044E+00,  4.28505005E-03, -2.19325920E-06,
                       5.58882699E-10, -5.61246669E-14,  5.98557610E+02,
                       8.84564156E+00])))

species(name='gQOOH[O]',
        atoms='C:4 H:9 O:3',
        thermo=(NASA([10.00, 535.23],
                     [ 3.83107445E+00,  1.02302002E-02,  2.29377261E-04,
                      -4.59095575E-07,  2.77765018E-10, -1.86719077E+04,
                       1.41034859E+01]),
                NASA([535.23, 3000.00],
                     [-4.19283096E-01,  7.69784620E-02, -5.57279000E-05,
                       1.81378295E-08, -2.18295635E-12, -1.87180211E+04,
                       2.72711816E+01])))

#-------------------------------------------------------------------------------
# Reaction data
#-------------------------------------------------------------------------------

# Reaction 1
chebyshev_reaction('gQOOH[O] (+ M) <=> gRO2 (+ M)',
                   Tmin=180.0, Tmax=1500.0,
                   Pmin=(0.01, 'atm'), Pmax=(98.692, 'atm'),
                   coeffs=[[ 5.78400e+00,  6.35500e-01, -6.55900e-02,  3.01100e-03, -2.28700e-03,  4.52700e-04, -1.20300e-04, -2.21000e-05],
                           [ 2.03600e+00,  1.04200e+00, -7.86600e-02, -3.27200e-03, -1.12600e-03, -1.40900e-04, -9.00600e-05, -2.24400e-05],
                           [-8.38800e-01,  5.87900e-01, -8.49800e-03, -5.21500e-03,  8.62100e-04, -8.91900e-04, -2.57200e-05,  4.65400e-06],
                           [-5.86300e-01,  2.19500e-01,  1.00200e-02,  4.73600e-03,  7.09300e-04, -8.92100e-04, -7.01800e-05, -1.48700e-06],
                           [-1.89500e-01,  3.77700e-02, -4.64000e-03,  1.00600e-02,  1.51000e-03, -5.68600e-04, -1.28900e-04, -2.43200e-05],
                           [-4.02700e-02, -1.21400e-02, -1.68900e-02,  6.76000e-03,  2.03500e-03,  5.13000e-05, -1.27600e-04, -4.96100e-05],
                           [ 7.35500e-03, -1.30600e-02, -1.48300e-02,  1.10500e-03,  1.28600e-03,  5.01700e-04, -3.59600e-05, -4.84800e-05],
                           [ 1.58700e-02, -6.45100e-03, -6.82000e-03, -1.75500e-03,  1.77000e-04,  4.67500e-04,  4.89100e-05, -1.69300e-05],
                           [ 1.04700e-02, -1.22300e-03, -1.39300e-03, -1.78300e-03, -3.28400e-04,  2.03300e-04,  4.32300e-05,  9.97700e-06],
                           [ 4.26700e-03,  1.27900e-03,  8.20400e-04, -1.20800e-03, -2.11300e-04,  3.92000e-05, -1.05000e-05,  1.08000e-05]])

# Reaction 2
chebyshev_reaction('gQOOHa (+ M) <=> gRO2 (+ M)',
                   Tmin=180.0, Tmax=1500.0,
                   Pmin=(0.01, 'atm'), Pmax=(98.692, 'atm'),
                   coeffs=[[ 8.09500e+00,  5.72100e-01, -1.63300e-01,  9.21800e-03,  7.13700e-04,  1.64100e-03, -5.71300e-06, -1.52100e-04],
                           [ 7.31400e-01,  8.48500e-01, -1.91800e-01, -1.86600e-02,  8.15800e-03,  1.93100e-03,  2.78200e-04, -2.66100e-04],
                           [-1.37100e-01,  4.02800e-01, -3.34100e-02, -3.38600e-02,  1.16200e-03,  3.62900e-03,  3.29600e-04, -2.12000e-04],
                           [-1.71700e-01,  1.29400e-01,  2.29800e-02, -1.50300e-02, -8.03300e-03,  2.70100e-03,  1.17600e-03, -1.67100e-04],
                           [-7.67200e-02,  3.48900e-02,  1.49800e-02,  3.47800e-03, -7.96000e-03, -5.67200e-04,  1.47300e-03,  1.78700e-04],
                           [-2.82000e-02,  1.71400e-02,  2.34900e-04,  7.43300e-03, -2.76700e-03, -2.32900e-03,  6.82500e-04,  4.85700e-04],
                           [-1.49800e-02,  1.43600e-02, -4.25800e-03,  3.92500e-03,  8.72200e-04, -1.84400e-03, -2.07900e-04,  4.21900e-04],
                           [-1.02000e-02,  1.07400e-02, -2.99800e-03,  5.98300e-04,  1.63200e-03, -6.94600e-04, -5.11800e-04,  1.54600e-04],
                           [-6.24900e-03,  6.45800e-03, -1.06200e-03, -6.73500e-04,  1.06100e-03,  2.55700e-05, -3.80700e-04, -3.95200e-05],
                           [-3.19600e-03,  3.07200e-03,  2.12300e-05, -7.12200e-04,  4.08700e-04,  2.38300e-04, -1.68800e-04, -9.29100e-05]])

# Reaction 3
chebyshev_reaction('gQOOHg (+ M) <=> gRO2 (+ M)',
                   Tmin=180.0, Tmax=1500.0,
                   Pmin=(0.01, 'atm'), Pmax=(98.692, 'atm'),
                   coeffs=[[ 4.20100e+00,  2.37700e-01, -9.75700e-02,  1.94000e-02, -6.71600e-05, -6.30000e-04,  9.09000e-06,  4.44700e-05],
                           [ 4.31900e+00,  4.31100e-01, -1.72000e-01,  3.08000e-02,  1.62700e-03, -1.45800e-03,  7.00300e-06,  9.65000e-05],
                           [ 9.42200e-02,  3.23100e-01, -1.17400e-01,  1.32300e-02,  4.87400e-03, -1.58600e-03, -9.35500e-05,  1.20500e-04],
                           [-2.68100e-01,  2.02900e-01, -6.06600e-02, -2.10800e-03,  6.28500e-03, -1.06500e-03, -2.98700e-04,  1.36100e-04],
                           [-7.74100e-02,  1.08800e-01, -2.16000e-02, -8.87300e-03,  4.95300e-03, -1.06000e-04, -4.49900e-04,  1.02800e-04],
                           [-3.39900e-02,  5.14500e-02, -2.94000e-03, -8.37200e-03,  2.37400e-03,  6.42400e-04, -4.07200e-04,  2.21500e-05],
                           [-2.23100e-02,  2.26400e-02,  2.49600e-03, -5.03600e-03,  2.99500e-04,  8.31400e-04, -2.10000e-04, -5.58000e-05],
                           [-9.59200e-03,  9.81100e-03,  2.60900e-03, -2.15200e-03, -6.09200e-04,  5.98500e-04, -5.93400e-06, -8.61900e-05],
                           [-4.37400e-03,  4.06900e-03,  1.79400e-03, -6.77400e-04, -6.63600e-04,  2.69600e-04,  1.00400e-04, -6.75000e-05],
                           [-2.18000e-03,  1.29700e-03,  1.26100e-03, -1.80800e-04, -4.26000e-04,  5.46100e-05,  1.06300e-04, -2.98700e-05]])

# Reaction 4
chebyshev_reaction('gQOOHb (+ M) <=> gRO2 (+ M)',
                   Tmin=180.0, Tmax=1500.0,
                   Pmin=(0.01, 'atm'), Pmax=(98.692, 'atm'),
                   coeffs=[[-1.09100e+00,  1.10700e+00, -1.07600e-01, -5.70900e-03, -1.36000e-03, -1.68500e-04, -3.71900e-05, -1.31400e-05],
                           [ 4.43500e+00,  1.44000e+00, -1.07100e-01,  7.04500e-04, -3.36800e-03, -8.39000e-04, -8.62700e-05, -3.75500e-05],
                           [ 1.22800e+00,  2.65900e-01, -4.10100e-03,  2.24100e-02,  6.02500e-04, -1.47100e-03, -3.41100e-04, -5.72900e-05],
                           [ 1.43000e-01, -1.29800e-01, -1.13100e-02,  1.11300e-02,  7.74000e-03,  1.24900e-04, -5.26400e-04, -1.49400e-04],
                           [-1.69500e-01,  1.49100e-03, -2.27100e-02, -1.25800e-02,  6.10700e-03,  1.65800e-03,  1.91800e-05, -1.09000e-04],
                           [-1.45000e-01,  9.58800e-02, -8.16100e-03, -1.30100e-02, -2.40700e-04,  7.19700e-04,  3.86900e-04,  8.87300e-05],
                           [-3.52200e-02,  4.83100e-02,  2.53400e-03, -1.08300e-03, -2.31200e-03, -3.53500e-04,  7.42600e-05,  9.63000e-05],
                           [ 2.29100e-02, -1.16100e-02,  3.21800e-03,  3.23300e-03, -8.90600e-04, -1.27900e-04, -1.58900e-04, -4.60000e-05],
                           [ 1.71100e-02, -1.79200e-02,  9.97500e-04,  6.05700e-04,  3.48400e-04,  1.91200e-04, -4.18800e-05, -6.84800e-05],
                           [-4.73400e-03,  2.12600e-03, -8.11800e-04, -1.33200e-03,  5.12100e-04,  4.10000e-05,  7.09400e-05,  4.23600e-07]])

# Reaction 5
chebyshev_reaction('O2 + gR (+ M) <=> gRO2 (+ M)',
                   Tmin=180.0, Tmax=1500.0,
                   Pmin=(0.01, 'atm'), Pmax=(98.692, 'atm'),
                   coeffs=[[ 1.17900e+01,  1.87100e-01, -7.46000e-02,  1.50300e-02, -1.31200e-03,  3.01300e-04, -9.28800e-05, -2.85100e-05],
                           [-7.94900e-01,  3.08600e-01, -1.13700e-01,  1.62800e-02,  1.55100e-03, -4.90900e-04,  5.52200e-05, -8.99300e-05],
                           [-3.05400e-01,  1.89600e-01, -5.53800e-02, -1.80400e-03,  4.98700e-03, -7.77400e-04, -3.89900e-05, -1.89000e-05],
                           [-1.25800e-01,  8.93400e-02, -1.34000e-02, -9.96100e-03,  4.42300e-03, -5.71000e-05, -2.50000e-04,  3.20200e-05],
                           [-5.31300e-02,  3.65800e-02,  1.42600e-03, -7.79100e-03,  1.64300e-03,  6.33200e-04, -2.50400e-04, -1.54000e-07],
                           [-2.54800e-02,  1.88200e-02,  7.10400e-04, -2.70700e-03, -3.43400e-04,  6.30300e-04, -5.14500e-05, -5.20800e-05],
                           [-1.49000e-02,  1.36600e-02, -2.07000e-03,  5.65100e-05, -6.43800e-04,  2.15700e-04,  1.08800e-04, -5.22900e-05],
                           [-8.76900e-03,  8.99900e-03, -1.90000e-03,  2.00700e-04, -1.60500e-04, -7.98700e-05,  1.10000e-04, -1.10200e-05],
                           [-4.01700e-03,  3.72700e-03, -1.52700e-04, -4.01300e-04,  1.50100e-04, -9.31900e-05,  2.66900e-05,  2.01600e-05],
                           [-9.76200e-04,  1.23400e-04,  9.54400e-04, -5.52600e-04,  9.86100e-05,  1.02800e-05, -2.79700e-05,  1.92200e-05]])
#  gRO2(+M) <=> gQOOH[O](+M)                           1.000e+00 0.000     0.000
#      TCHEB/ 180.000   1500.000 /
#      PCHEB/ 0.010     98.692   /
#      CHEB/ 10 8/
#      CHEB/ -1.065e+01   6.355e-01    -6.559e-02   3.011e-03    -2.287e-03  /
#      CHEB/ 4.527e-04    -1.203e-04   -2.210e-05   1.431e+01    1.042e+00   /
#      CHEB/ -7.866e-02   -3.272e-03   -1.126e-03   -1.409e-04   -9.006e-05  /
#      CHEB/ -2.244e-05   -6.658e-01   5.879e-01    -8.498e-03   -5.215e-03  /
#      CHEB/ 8.621e-04    -8.919e-04   -2.572e-05   4.654e-06    -4.615e-01  /
#      CHEB/ 2.195e-01    1.002e-02    4.736e-03    7.093e-04    -8.921e-04  /
#      CHEB/ -7.018e-05   -1.487e-06   -1.358e-01   3.777e-02    -4.640e-03  /
#      CHEB/ 1.006e-02    1.510e-03    -5.686e-04   -1.289e-04   -2.432e-05  /
#      CHEB/ -2.122e-02   -1.214e-02   -1.689e-02   6.760e-03    2.035e-03   /
#      CHEB/ 5.130e-05    -1.276e-04   -4.961e-05   1.357e-02    -1.306e-02  /
#      CHEB/ -1.483e-02   1.105e-03    1.286e-03    5.017e-04    -3.596e-05  /
#      CHEB/ -4.848e-05   1.779e-02    -6.451e-03   -6.820e-03   -1.755e-03  /
#      CHEB/ 1.770e-04    4.675e-04    4.891e-05    -1.693e-05   1.093e-02   /
#      CHEB/ -1.223e-03   -1.393e-03   -1.783e-03   -3.284e-04   2.033e-04   /
#      CHEB/ 4.323e-05    9.977e-06    4.238e-03    1.279e-03    8.204e-04   /
#      CHEB/ -1.208e-03   -2.113e-04   3.920e-05    -1.050e-05   1.080e-05   /

# Reaction 6
chebyshev_reaction('gQOOHa (+ M) <=> gQOOH[O] (+ M)',
                   Tmin=180.0, Tmax=1500.0,
                   Pmin=(0.01, 'atm'), Pmax=(98.692, 'atm'),
                   coeffs=[[-4.48000e+00, -3.10800e-01, -3.58200e-01,  2.13200e-02,  9.39000e-03, -3.24700e-03, -6.10400e-05,  6.26000e-04],
                           [ 7.68400e+00,  1.78000e+00, -9.02200e-02, -7.53100e-02,  1.37600e-03,  9.54500e-03, -1.18400e-03, -9.77400e-04],
                           [-7.20700e-01,  7.54100e-01,  4.03200e-02, -2.06800e-02, -1.38700e-02,  2.21100e-03,  3.08300e-03, -6.28900e-04],
                           [-5.35800e-01,  2.08200e-01,  2.52500e-02,  1.02000e-02, -5.46700e-03, -3.12300e-03,  1.49900e-03,  7.57800e-04],
                           [-1.37000e-01,  8.49200e-04, -3.18800e-03,  1.17000e-02,  6.24700e-04, -2.02700e-03, -1.75900e-04,  5.90900e-04],
                           [ 2.42900e-02, -2.41800e-02, -1.36300e-02,  3.52600e-03,  1.58300e-03, -4.31500e-04, -3.75200e-04,  1.82000e-04],
                           [ 4.94300e-02, -7.72100e-03, -6.55700e-03, -2.19500e-03,  4.86000e-04,  1.78200e-05, -2.07600e-04,  6.23800e-05],
                           [ 2.42000e-02,  2.97400e-03,  1.37600e-03, -2.92600e-03, -8.44400e-05, -1.25700e-04, -1.83800e-04,  3.31500e-05],
                           [-1.39300e-04,  7.08100e-03,  2.98100e-03, -1.54400e-03,  1.01700e-04, -1.60800e-04, -1.99600e-04, -3.05600e-05],
                           [-8.91500e-03,  6.64800e-03,  1.83100e-03, -6.18200e-04,  3.31700e-04, -2.18200e-05, -1.31100e-04, -7.77300e-05]])

# Reaction 7
chebyshev_reaction('gQOOHg (+ M) <=> gQOOH[O] (+ M)',
                   Tmin=180.0, Tmax=1500.0,
                   Pmin=(0.01, 'atm'), Pmax=(98.692, 'atm'),
                   coeffs=[[-4.81700e+00, -7.99500e-01, -2.04500e-01,  2.05800e-02, -1.34500e-03, -2.16600e-04, -5.29100e-05,  8.08100e-06],
                           [ 7.44000e+00,  1.67800e+00, -2.04200e-01,  5.06700e-04,  6.26900e-03, -2.02300e-03, -1.09800e-04,  1.41900e-04],
                           [-3.28800e-01,  6.97800e-01, -6.02100e-02,  8.20500e-03,  3.66600e-03, -1.76600e-03, -1.28700e-04,  8.90000e-05],
                           [-3.33500e-01,  1.53600e-01, -2.95200e-02,  9.00000e-03,  6.73200e-03, -9.11800e-04, -6.23200e-04,  1.11100e-04],
                           [-8.53700e-02,  2.20700e-02, -2.78200e-02, -6.02700e-03,  7.55900e-03,  1.10000e-03, -6.89700e-04, -7.92500e-06],
                           [ 1.13800e-02,  3.03900e-02, -1.32000e-02, -1.48500e-02,  2.93100e-03,  2.01900e-03, -1.74900e-04, -7.43400e-05],
                           [ 2.16600e-02,  2.96600e-02,  4.27100e-03, -1.15600e-02, -1.24600e-03,  1.20500e-03,  1.90900e-04, -2.95200e-05],
                           [ 6.78500e-03,  1.55100e-02,  9.27000e-03, -4.03200e-03, -2.22000e-03,  1.89600e-04,  2.03200e-04, -2.07800e-05],
                           [-5.78000e-03,  6.76500e-03,  5.49500e-03,  5.04100e-04, -1.43600e-03, -1.59900e-04,  1.21200e-04, -4.65300e-05],
                           [-7.39200e-03,  1.39700e-03,  2.25900e-03,  1.36100e-03, -6.08800e-04, -1.36000e-04,  7.88700e-05, -3.14700e-05]])

# Reaction 8
chebyshev_reaction('gQOOHb (+ M) <=> gQOOH[O] (+ M)',
                   Tmin=180.0, Tmax=1500.0,
                   Pmin=(0.01, 'atm'), Pmax=(98.692, 'atm'),
                   coeffs=[[-1.21900e+01,  8.07000e-01, -2.82000e-01, -4.00700e-02, -4.06500e-03,  4.13500e-03,  9.19900e-04, -3.47300e-04],
                           [ 1.07000e+01,  1.82700e+00,  2.31500e-02,  2.19400e-02, -4.91400e-03, -7.46600e-03, -1.23200e-03,  6.65600e-04],
                           [ 1.01700e-01,  4.65300e-01,  1.55000e-03,  1.56200e-02,  1.12300e-02,  1.14700e-03, -1.02900e-03, -7.96600e-04],
                           [-2.64000e-01, -2.69400e-02, -3.44700e-03,  3.92300e-03,  4.50000e-03,  1.58600e-03,  6.14200e-04,  3.56400e-05],
                           [-7.73600e-02, -5.11400e-02, -1.40900e-02, -6.63300e-03,  3.77600e-03,  7.31400e-04, -1.37700e-04,  1.52400e-04],
                           [ 9.44600e-03,  2.20000e-02, -1.04500e-02, -1.17400e-02,  1.09900e-03,  1.20200e-03, -1.01500e-05, -9.61800e-05],
                           [ 1.95600e-02,  3.24500e-02,  1.84200e-05, -6.50100e-03, -1.72400e-03,  4.88500e-04,  3.08500e-04, -6.22700e-06],
                           [ 8.32900e-03,  1.24200e-02,  3.84400e-03,  3.72900e-05, -1.86600e-03, -3.18100e-04,  1.75500e-04,  6.88100e-05],
                           [-4.93100e-04,  7.80100e-04,  2.23100e-03,  2.02800e-03, -6.96800e-04, -3.46600e-04, -2.99300e-05,  2.22200e-05],
                           [-2.59600e-03, -2.62400e-03,  1.20800e-03,  9.11700e-04,  1.16900e-04, -9.11400e-05, -7.50200e-05, -7.57700e-06]])

# Reaction 9
chebyshev_reaction('O2 + gR (+ M) <=> gQOOH[O] (+ M)',
                   Tmin=180.0, Tmax=1500.0,
                   Pmin=(0.01, 'atm'), Pmax=(98.692, 'atm'),
                   coeffs=[[ 4.52700e+00, -3.37600e-01, -2.89800e-01, -1.94400e-03,  1.02600e-02,  7.15500e-04, -1.30000e-03, -1.36600e-05],
                           [ 3.09700e-01,  1.02700e+00,  4.23000e-02, -6.06400e-03, -1.47500e-02,  4.79200e-04,  1.82700e-03, -2.56700e-04],
                           [-2.52800e-01,  3.39100e-01, -2.06600e-03,  1.38600e-02,  6.50000e-03, -3.11700e-03, -6.71800e-04,  2.20500e-04],
                           [-1.87700e-01,  3.44700e-02, -1.98000e-02, -1.68100e-03,  1.07600e-02,  6.67600e-04, -9.36200e-04, -1.51300e-04],
                           [-5.14600e-02,  1.02700e-03, -1.16400e-02, -1.34800e-02,  3.24500e-03,  2.72800e-03,  8.53400e-07, -1.81100e-04],
                           [ 7.79700e-03,  2.23200e-02,  1.80800e-04, -9.48100e-03, -2.91700e-03,  1.43400e-03,  5.58700e-04, -9.29100e-07],
                           [ 2.51000e-02,  1.34000e-02,  2.53500e-03, -4.90300e-04, -2.78000e-03, -4.31600e-04,  3.19500e-04,  1.02400e-04],
                           [ 1.53000e-02,  3.15500e-03,  6.47900e-04,  2.07400e-03, -3.80400e-04, -7.41600e-04, -5.46700e-05,  5.66600e-05],
                           [-3.01800e-03,  4.55800e-03,  7.22200e-04, -2.31800e-06,  5.37100e-04, -1.27400e-04, -1.33300e-04, -1.12300e-05],
                           [-6.24400e-03,  1.27300e-03,  1.43700e-03, -6.75300e-04,  2.41600e-04,  1.68800e-04, -5.91200e-05, -2.02000e-05]])
#  gRO2(+M) <=> gQOOHa(+M)                             1.000e+00 0.000     0.000
#      TCHEB/ 180.000   1500.000 /
#      PCHEB/ 0.010     98.692   /
#      CHEB/ 10 8/
#      CHEB/ -2.006e+00   5.721e-01    -1.633e-01   9.218e-03    7.137e-04   /
#      CHEB/ 1.641e-03    -5.713e-06   -1.521e-04   8.646e+00    8.485e-01   /
#      CHEB/ -1.918e-01   -1.866e-02   8.158e-03    1.931e-03    2.782e-04   /
#      CHEB/ -2.661e-04   2.457e-02    4.028e-01    -3.341e-02   -3.386e-02  /
#      CHEB/ 1.162e-03    3.629e-03    3.296e-04    -2.120e-04   -9.755e-02  /
#      CHEB/ 1.294e-01    2.298e-02    -1.503e-02   -8.033e-03   2.701e-03   /
#      CHEB/ 1.176e-03    -1.671e-04   -4.818e-02   3.489e-02    1.498e-02   /
#      CHEB/ 3.478e-03    -7.960e-03   -5.672e-04   1.473e-03    1.787e-04   /
#      CHEB/ -1.841e-02   1.714e-02    2.349e-04    7.433e-03    -2.767e-03  /
#      CHEB/ -2.329e-03   6.825e-04    4.857e-04    -1.207e-02   1.436e-02   /
#      CHEB/ -4.258e-03   3.925e-03    8.722e-04    -1.844e-03   -2.079e-04  /
#      CHEB/ 4.219e-04    -9.572e-03   1.074e-02    -2.998e-03   5.983e-04   /
#      CHEB/ 1.632e-03    -6.946e-04   -5.118e-04   1.546e-04    -6.252e-03  /
#      CHEB/ 6.458e-03    -1.062e-03   -6.735e-04   1.061e-03    2.557e-05   /
#      CHEB/ -3.807e-04   -3.952e-05   -3.314e-03   3.072e-03    2.123e-05   /
#      CHEB/ -7.122e-04   4.087e-04    2.383e-04    -1.688e-04   -9.291e-05  /
#  gQOOH[O](+M) <=> gQOOHa(+M)                         1.000e+00 0.000     0.000
#      TCHEB/ 180.000   1500.000 /
#      PCHEB/ 0.010     98.692   /
#      CHEB/ 10 8/
#      CHEB/ 1.856e+00    -3.108e-01   -3.582e-01   2.132e-02    9.390e-03   /
#      CHEB/ -3.247e-03   -6.104e-05   6.260e-04    3.329e+00    1.780e+00   /
#      CHEB/ -9.022e-02   -7.531e-02   1.376e-03    9.545e-03    -1.184e-03  /
#      CHEB/ -9.774e-04   -7.321e-01   7.541e-01    4.032e-02    -2.068e-02  /
#      CHEB/ -1.387e-02   2.211e-03    3.083e-03    -6.289e-04   -5.864e-01  /
#      CHEB/ 2.082e-01    2.525e-02    1.020e-02    -5.467e-03   -3.123e-03  /
#      CHEB/ 1.499e-03    7.578e-04    -1.621e-01   8.492e-04    -3.188e-03  /
#      CHEB/ 1.170e-02    6.247e-04    -2.027e-03   -1.759e-04   5.909e-04   /
#      CHEB/ 1.504e-02    -2.418e-02   -1.363e-02   3.526e-03    1.583e-03   /
#      CHEB/ -4.315e-04   -3.752e-04   1.820e-04    4.612e-02    -7.721e-03  /
#      CHEB/ -6.557e-03   -2.195e-03   4.860e-04    1.782e-05    -2.076e-04  /
#      CHEB/ 6.238e-05    2.291e-02    2.974e-03    1.376e-03    -2.926e-03  /
#      CHEB/ -8.444e-05   -1.257e-04   -1.838e-04   3.315e-05    -6.044e-04  /
#      CHEB/ 7.081e-03    2.981e-03    -1.544e-03   1.017e-04    -1.608e-04  /