units(length='cm', time='s', quantity='mol', act_energy='kcal/mol')

ideal_gas(name='gas',
          elements="H D T C Ci O Oi N Ne Ar He Si S F Cl Br I X",
          species="""OH             bQOOH[O]       acetone
                     H2O            balkoxyketone  ibutenol
                     trisub_epoxy   bQOOHg         CH2O
                     galkene        O2             bR
                     bQOOHa         bRO2           disub_epoxy
                     HO2""",
          reactions='all',
          initial_state=state(temperature=300.0, pressure=OneAtm))

#-------------------------------------------------------------------------------
# Element data
#-------------------------------------------------------------------------------

element(symbol='Ci', atomic_mass=13.003)
element(symbol='D', atomic_mass=2.014)
element(symbol='Oi', atomic_mass=18.0)
element(symbol='T', atomic_mass=3.016)
element(symbol='X', atomic_mass=195.083)
#-------------------------------------------------------------------------------
# Species data
#-------------------------------------------------------------------------------

species(name='OH',
        atoms='H:1 O:1',
        thermo=(NASA([10.00, 984.14],
                     [ 3.49686242E+00,  1.83973160E-04, -9.97634499E-07,
                       1.56942783E-09, -6.10128175E-13,  3.41673934E+03,
                       1.48093120E+00]),
                NASA([984.14, 3000.00],
                     [ 3.45221464E+00, -2.95124034E-04,  7.39418622E-07,
                      -2.89309866E-10,  3.53041498E-14,  3.45751599E+03,
                       1.85813897E+00])))

species(name='bQOOH[O]',
        atoms='C:4 H:9 O:3',
        thermo=(NASA([10.00, 338.69],
                     [ 3.60915854E+00,  3.39069566E-02,  2.22227265E-04,
                      -8.23527342E-07,  8.56246333E-10, -2.23973912E+04,
                       1.23284605E+01]),
                NASA([338.69, 3000.00],
                     [ 5.03198881E+00,  5.46235886E-02, -3.56935806E-05,
                       1.12371751E-08, -1.35390171E-12, -2.27089739E+04,
                       3.82760723E+00])))

species(name='acetone',
        atoms='C:3 H:6 O:1',
        thermo=(NASA([10.00, 414.35],
                     [ 3.73496166E+00,  3.05743218E-02, -1.26253585E-04,
                       3.66080978E-07, -3.31430437E-10, -2.64283104E+04,
                       8.24936012E+00]),
                NASA([414.35, 3000.00],
                     [ 1.70010292E-01,  3.28431468E-02, -1.80960132E-05,
                       4.82960690E-09, -5.02388538E-13, -2.58569273E+04,
                       2.56372653E+01])))

species(name='H2O',
        atoms='H:2 O:1',
        thermo=(NASA([10.00, 773.84],
                     [ 4.00473541E+00, -2.39729134E-04,  8.11862955E-07,
                       1.47891862E-09, -1.19783539E-12, -3.03533807E+04,
                      -9.96254147E-02]),
                NASA([773.84, 3000.00],
                     [ 3.52133374E+00,  1.05377009E-03,  6.40722099E-07,
                      -3.86240235E-10,  5.49243294E-14, -3.02424794E+04,
                       2.34173094E+00])))

species(name='balkoxyketone',
        atoms='C:4 H:7 O:2',
        thermo=(NASA([10.00, 269.93],
                     [ 3.81931151E+00,  1.68519318E-02,  2.42742224E-04,
                      -9.64821161E-07,  1.18509335E-09, -1.88486233E+04,
                       1.20521854E+01]),
                NASA([269.93, 3000.00],
                     [ 3.57555944E+00,  4.28868089E-02, -2.65390705E-05,
                       7.99659117E-09, -9.32983470E-13, -1.89171514E+04,
                       1.13957990E+01])))

species(name='ibutenol',
        atoms='C:4 H:8 O:1',
        thermo=(NASA([10.00, 135.97],
                     [ 3.95714996E+00,  5.72646980E-03,  4.63611760E-04,
                      -3.04137514E-06,  6.85019471E-09, -2.32087806E+04,
                       8.21931848E+00]),
                NASA([135.97, 3000.00],
                     [ 3.32467612E+00,  3.69033556E-02, -1.89960416E-05,
                       4.73417677E-09, -4.59705291E-13, -2.32032019E+04,
                       9.58133237E+00])))

species(name='trisub_epoxy',
        atoms='C:4 H:8 O:2',
        thermo=(NASA([10.00, 209.19],
                     [ 3.75295042E+00,  2.37546930E-02,  1.26610110E-04,
                      -4.78364365E-07,  5.79468168E-10, -4.17803794E+04,
                       1.12739684E+01]),
                NASA([209.19, 3000.00],
                     [ 2.64185254E+00,  4.50006531E-02, -2.57361066E-05,
                       7.15266054E-09, -7.72980731E-13, -4.17338939E+04,
                       1.48960343E+01])))

species(name='bQOOHg',
        atoms='C:4 H:9 O:3',
        thermo=(NASA([10.00, 441.09],
                     [ 3.56595280E+00,  3.36073467E-02,  2.03462772E-04,
                      -5.98977617E-07,  4.83271168E-10, -2.22653842E+04,
                       1.33537891E+01]),
                NASA([441.09, 3000.00],
                     [ 6.09031192E+00,  5.80517622E-02, -4.06392697E-05,
                       1.32574026E-08, -1.62501077E-12, -2.29485696E+04,
                      -1.97849715E+00])))

species(name='CH2O',
        atoms='C:1 H:2 O:1',
        thermo=(NASA([10.00, 601.31],
                     [ 4.03190845E+00, -1.93233367E-03,  8.89743345E-06,
                       2.98105926E-09, -7.90813886E-12, -1.42276270E+04,
                       3.47574660E+00]),
                NASA([601.31, 3000.00],
                     [ 1.40134195E+00,  9.48858016E-03, -4.43088317E-06,
                       9.48452194E-10, -7.43790219E-14, -1.38013869E+04,
                       1.57423780E+01])))

species(name='galkene',
        atoms='C:4 H:8 O:1',
        thermo=(NASA([10.00, 383.47],
                     [ 3.84035604E+00,  1.20378740E-02,  1.87486319E-04,
                      -5.44759148E-07,  4.80711015E-10, -2.13199253E+04,
                       1.02570291E+01]),
                NASA([383.47, 3000.00],
                     [ 4.00413385E+00,  3.79025144E-02, -2.15435710E-05,
                       6.15213311E-09, -6.97446345E-13, -2.15352146E+04,
                       6.98052628E+00])))

species(name='O2',
        atoms='O:2',
        thermo=(NASA([10.00, 605.96],
                     [ 3.50743498E+00, -4.43860349E-04,  1.45938058E-06,
                       1.61509333E-09, -2.32050052E-12, -9.24756224E+02,
                       4.72183634E+00]),
                NASA([605.96, 3000.00],
                     [ 2.87462882E+00,  2.17840991E-03, -1.18262921E-06,
                       2.86910493E-10, -2.53297146E-14, -8.19517838E+02,
                       7.69331810E+00])))

species(name='bR',
        atoms='C:4 H:9 O:1',
        thermo=(NASA([10.00, 483.43],
                     [ 3.38164846E+00,  5.97142637E-02, -1.58320095E-04,
                       3.04908893E-07, -2.13091806E-10, -1.21593574E+04,
                       1.09226843E+01]),
                NASA([483.43, 3000.00],
                     [ 2.33428824E+00,  4.22094427E-02, -2.28029290E-05,
                       6.04614564E-09, -6.30240159E-13, -1.17522755E+04,
                       1.83772893E+01])))

species(name='bQOOHa',
        atoms='C:4 H:9 O:3',
        thermo=(NASA([10.00, 390.53],
                     [ 3.54969236E+00,  3.76592474E-02,  1.76622653E-04,
                      -5.98063750E-07,  5.45069236E-10, -2.73838035E+04,
                       1.31518761E+01]),
                NASA([390.53, 3000.00],
                     [ 5.33564209E+00,  5.64935715E-02, -3.83214298E-05,
                       1.22990604E-08, -1.49549987E-12, -2.78064135E+04,
                       2.59015836E+00])))

species(name='bRO2',
        atoms='C:4 H:9 O:3',
        thermo=(NASA([10.00, 461.39],
                     [ 3.53964713E+00,  3.88723795E-02,  9.57420148E-05,
                      -2.80380499E-07,  2.09647462E-10, -3.40371394E+04,
                       1.18803618E+01]),
                NASA([461.39, 3000.00],
                     [ 3.47201723E+00,  6.00510247E-02, -4.00567321E-05,
                       1.25663813E-08, -1.49496682E-12, -3.42500862E+04,
                       9.77903975E+00])))

species(name='disub_epoxy',
        atoms='C:4 H:8 O:2',
        thermo=(NASA([10.00, 549.41],
                     [ 3.89863211E+00,  5.97532637E-03,  1.66685676E-04,
                      -3.10743768E-07,  1.78330192E-10, -3.56333914E+04,
                       1.13847308E+01]),
                NASA([549.41, 3000.00],
                     [-6.40277648E-01,  6.05960003E-02, -4.13427220E-05,
                       1.31555461E-08, -1.57685017E-12, -3.54602745E+04,
                       2.76005436E+01])))

species(name='HO2',
        atoms='H:1 O:2',
        thermo=(NASA([10.00, 891.11],
                     [ 4.02887004E+00, -1.75769289E-03,  1.08726004E-05,
                      -1.13812972E-08,  3.90113097E-12,  4.95165001E+02,
                       4.69302008E+00]),
                NASA([891.11, 3000.00],
                     [ 3.06571044E+00,  4.28505005E-03, -2.19325920E-06,
                       5.58882699E-10, -5.61246669E-14,  5.98557610E+02,
                       8.84564156E+00])))

#-------------------------------------------------------------------------------
# Reaction data
#-------------------------------------------------------------------------------

# Reaction 1
chebyshev_reaction('bQOOHg (+ M) <=> bRO2 (+ M)',
                   Tmin=180.0, Tmax=1500.0,
                   Pmin=(0.01, 'atm'), Pmax=(98.692, 'atm'),
                   coeffs=[[ 2.93900e+00,  8.58300e-01, -2.68600e-02, -4.88200e-03,  9.58000e-04,  4.59300e-04, -6.01300e-05, -2.78600e-05],
                           [-1.66900e+00,  1.33100e+00, -3.92400e-03, -6.68300e-03,  6.55300e-04,  4.93700e-04, -5.15700e-06, -3.50900e-05],
                           [-2.67400e+00,  5.52700e-01,  5.68800e-02,  8.45600e-03, -2.07000e-03, -3.96900e-04,  1.34900e-04,  1.93500e-05],
                           [-1.68600e+00, -5.38500e-03,  3.79600e-02,  2.31700e-02, -9.40800e-04, -1.24400e-03,  2.33100e-05,  6.73800e-05],
                           [-9.41300e-01, -1.44500e-01, -1.69400e-02,  1.69400e-02,  3.46300e-03, -7.36000e-04, -3.15400e-04,  3.59400e-05],
                           [-3.38000e-01, -5.62000e-02, -3.27000e-02, -2.39500e-03,  4.25200e-03,  8.40600e-04, -3.08000e-04, -7.30600e-05],
                           [-1.95800e-01,  3.45100e-02, -6.98500e-03, -1.09000e-02,  1.74800e-04,  1.30400e-03,  1.59800e-04, -8.41200e-05],
                           [-6.81800e-02,  4.44300e-02,  1.99100e-02, -3.44300e-03, -2.57600e-03, -3.13400e-06,  3.71900e-04,  5.64100e-05],
                           [-9.55700e-02,  3.37500e-03,  2.23800e-02,  7.11200e-03, -8.07600e-04, -1.13100e-03, -4.69300e-05,  1.23000e-04],
                           [-7.96600e-02, -3.60100e-02,  6.25000e-03,  9.27000e-03,  2.48000e-03, -6.75200e-04, -5.03100e-04, -1.75000e-05]])

# Reaction 2
chebyshev_reaction('bQOOHa (+ M) <=> bRO2 (+ M)',
                   Tmin=180.0, Tmax=1500.0,
                   Pmin=(0.01, 'atm'), Pmax=(98.692, 'atm'),
                   coeffs=[[-2.98200e+00,  1.53600e+00, -4.79800e-03, -2.34600e-03, -1.69200e-02,  3.03000e-03,  9.98900e-04, -6.98400e-05],
                           [ 1.44700e+00,  1.71800e+00,  2.46700e-01, -6.44400e-02, -1.00100e-02,  3.17300e-03,  1.54100e-03, -4.14600e-04],
                           [-2.21500e+00,  3.87000e-01,  1.10200e-01,  1.69100e-03,  3.67700e-04,  2.06500e-03, -8.99300e-05, -5.38500e-04],
                           [-1.24900e+00, -1.74100e-01, -3.03800e-02,  1.19500e-02,  1.16300e-02,  1.46700e-03, -1.09500e-03, -4.52900e-04],
                           [-6.74100e-01, -1.38000e-01, -5.33800e-02,  2.38300e-03,  5.28800e-03,  8.98500e-04, -5.84700e-04, -8.43900e-05],
                           [-3.10200e-01, -2.98300e-02, -3.65300e-03, -5.17100e-04, -1.47800e-03, -1.01000e-03, -5.47800e-05,  2.55300e-04],
                           [-1.65600e-01, -1.69800e-03,  1.88400e-02,  5.29400e-03, -1.41000e-03, -1.40600e-03, -6.92900e-05,  2.02200e-04],
                           [-9.86000e-02, -2.18900e-02,  1.31600e-02,  6.33600e-03,  1.37900e-03, -3.85000e-04, -6.43200e-05,  7.98200e-06],
                           [-8.62000e-02, -2.29000e-02, -5.33800e-03,  6.14900e-03,  1.58400e-03,  4.25400e-04,  3.55600e-05, -4.16900e-05],
                           [-3.83000e-02, -3.40800e-02, -5.54700e-03,  1.18200e-03,  1.33000e-03,  3.14000e-04,  8.28900e-05, -4.64400e-06]])

# Reaction 3
chebyshev_reaction('bQOOH[O] (+ M) <=> bRO2 (+ M)',
                   Tmin=180.0, Tmax=1500.0,
                   Pmin=(0.01, 'atm'), Pmax=(98.692, 'atm'),
                   coeffs=[[ 4.95400e+00,  2.05100e+00, -1.40500e-02, -5.04100e-03, -2.04500e-03, -2.84000e-04,  3.98900e-05,  2.44200e-05],
                           [-5.81500e+00,  1.52900e-01,  7.28700e-03,  5.16600e-03,  5.58900e-04,  2.15500e-04,  1.15500e-04,  8.74800e-05],
                           [-2.78900e+00,  9.84000e-02, -1.32400e-02, -4.71900e-03, -2.14900e-03, -2.16800e-04,  1.03300e-04,  5.23600e-05],
                           [-1.39300e+00,  9.46000e-02,  3.00100e-03,  1.22900e-03, -1.43900e-04,  7.42500e-05,  8.26000e-05,  4.21800e-05],
                           [-6.49000e-01,  5.97800e-02,  2.76100e-03,  2.71700e-04, -6.49300e-05,  1.36600e-04,  1.00900e-04,  3.21800e-05],
                           [-3.84800e-01,  3.47100e-02,  6.99900e-03,  1.42800e-03,  3.34700e-04,  1.08500e-04,  4.57700e-05,  1.14100e-05],
                           [-2.99900e-01,  7.88400e-03,  6.61600e-03,  1.56600e-03,  5.77100e-04,  1.70800e-04,  3.89600e-05, -8.57300e-07],
                           [-1.87400e-01, -8.52300e-03,  6.74800e-03,  2.19300e-03,  6.94800e-04,  1.18700e-04, -5.81900e-07, -7.44100e-06],
                           [-3.62100e-02, -2.34800e-02,  2.19300e-03,  1.27000e-03,  4.43000e-04,  8.38900e-05,  1.54300e-06, -5.34000e-06],
                           [-5.94700e-02, -2.49400e-02,  1.06500e-03,  1.84500e-03,  6.09800e-04,  8.38300e-05, -2.07900e-05, -1.12900e-05]])

# Reaction 4
chebyshev_reaction('O2 + bR (+ M) <=> bRO2 (+ M)',
                   Tmin=180.0, Tmax=1500.0,
                   Pmin=(0.01, 'atm'), Pmax=(98.692, 'atm'),
                   coeffs=[[ 1.24400e+01,  4.21800e-01, -4.88400e-02,  4.45500e-03, -1.23000e-03,  2.32200e-04, -3.22500e-05,  9.00300e-06],
                           [-1.16300e+00,  7.53000e-01, -6.99200e-02,  2.71600e-03, -9.80500e-04,  8.46500e-05,  2.58300e-05, -2.13800e-06],
                           [-8.57400e-01,  5.44300e-01, -1.61600e-02, -5.38100e-03,  1.83100e-04, -1.00700e-04,  4.29600e-05, -2.59000e-06],
                           [-6.58300e-01,  3.20100e-01,  2.54000e-02, -6.67800e-03, -2.41400e-04, -1.67800e-05,  1.95000e-05, -7.33900e-07],
                           [-4.66500e-01,  1.48500e-01,  3.96600e-02, -2.04800e-03, -9.62200e-04, -3.22400e-05,  2.09500e-05, -3.59800e-06],
                           [-3.15700e-01,  4.38900e-02,  3.40100e-02,  2.99000e-03, -7.60200e-04, -1.94600e-04,  1.38100e-05, -1.69500e-06],
                           [-2.07200e-01, -9.14700e-03,  2.15300e-02,  5.19400e-03,  1.27800e-04, -2.64900e-04, -3.25300e-05,  9.51000e-07],
                           [-1.31700e-01, -3.12600e-02,  1.02800e-02,  4.83600e-03,  8.71900e-04, -1.42800e-04, -7.93400e-05, -5.78500e-06],
                           [-7.96200e-02, -3.72000e-02,  2.55500e-03,  3.45000e-03,  1.08600e-03,  4.48300e-05, -8.08500e-05, -1.79600e-05],
                           [-4.40700e-02, -3.50900e-02, -2.15400e-03,  2.08400e-03,  9.09000e-04,  1.53300e-04, -4.27900e-05, -2.25600e-05]])
#  bRO2(+M) <=> bQOOHg(+M)                             1.000e+00 0.000     0.000
#      TCHEB/ 180.000   1500.000 /
#      PCHEB/ 0.010     98.692   /
#      CHEB/ 10 8/
#      CHEB/ -1.201e+01   8.583e-01    -2.686e-02   -4.882e-03   9.580e-04   /
#      CHEB/ 4.593e-04    -6.013e-05   -2.786e-05   1.122e+01    1.331e+00   /
#      CHEB/ -3.924e-03   -6.683e-03   6.553e-04    4.937e-04    -5.157e-06  /
#      CHEB/ -3.509e-05   -2.528e+00   5.527e-01    5.688e-02    8.456e-03   /
#      CHEB/ -2.070e-03   -3.969e-04   1.349e-04    1.935e-05    -1.649e+00  /
#      CHEB/ -5.385e-03   3.796e-02    2.317e-02    -9.408e-04   -1.244e-03  /
#      CHEB/ 2.331e-05    6.738e-05    -9.355e-01   -1.445e-01   -1.694e-02  /
#      CHEB/ 1.694e-02    3.463e-03    -7.360e-04   -3.154e-04   3.594e-05   /
#      CHEB/ -3.381e-01   -5.620e-02   -3.270e-02   -2.395e-03   4.252e-03   /
#      CHEB/ 8.406e-04    -3.080e-04   -7.306e-05   -1.964e-01   3.451e-02   /
#      CHEB/ -6.985e-03   -1.090e-02   1.748e-04    1.304e-03    1.598e-04   /
#      CHEB/ -8.412e-05   -6.863e-02   4.443e-02    1.991e-02    -3.443e-03  /
#      CHEB/ -2.576e-03   -3.134e-06   3.719e-04    5.641e-05    -9.589e-02  /
#      CHEB/ 3.375e-03    2.238e-02    7.112e-03    -8.076e-04   -1.131e-03  /
#      CHEB/ -4.693e-05   1.230e-04    -7.984e-02   -3.601e-02   6.250e-03   /
#      CHEB/ 9.270e-03    2.480e-03    -6.752e-04   -5.031e-04   -1.750e-05  /

# Reaction 5
chebyshev_reaction('bQOOHa (+ M) <=> bQOOHg (+ M)',
                   Tmin=180.0, Tmax=1500.0,
                   Pmin=(0.01, 'atm'), Pmax=(98.692, 'atm'),
                   coeffs=[[-1.54300e+01,  1.82200e+00, -8.18200e-02, -9.55000e-02, -3.69900e-03,  7.26000e-03, -1.45300e-03,  1.18300e-03],
                           [ 4.23200e+00,  2.36700e+00,  4.39800e-01, -4.30000e-03, -4.16800e-02,  1.85700e-03,  6.95500e-03, -2.75900e-03],
                           [-2.99900e+00,  9.03300e-02, -2.51600e-02,  5.80100e-02,  3.13900e-02, -2.69000e-03, -4.45800e-03,  4.68700e-04],
                           [-1.82800e+00, -3.32400e-01, -1.01300e-01,  6.55500e-03,  1.40500e-02,  2.14000e-03, -1.41200e-03,  6.18000e-05],
                           [-8.44000e-01, -1.01800e-01, -5.83700e-02, -1.55700e-02, -3.55800e-03,  1.99100e-03, -7.50000e-05, -1.40100e-04],
                           [-2.61000e-01,  4.73700e-03, -1.22500e-02, -3.03000e-03, -5.09300e-03, -2.39100e-03,  1.44900e-03,  1.42600e-04],
                           [-1.16000e-01,  1.05500e-01,  1.60500e-02, -6.34200e-03,  1.45400e-03, -3.60700e-05, -1.16600e-03,  1.83000e-04],
                           [-5.13400e-02,  4.96900e-02,  3.50300e-02,  7.44300e-03,  1.25500e-04, -9.63800e-04,  1.40000e-04, -1.17700e-05],
                           [-8.48600e-02,  1.04200e-02,  2.06600e-02,  1.14000e-02,  1.65200e-03,  3.05100e-05, -2.62900e-04, -6.91600e-05],
                           [-7.99200e-02, -4.13400e-02,  1.82400e-03,  7.97000e-03,  3.52100e-03,  1.09200e-04, -2.45900e-04, -7.40300e-06]])

# Reaction 6
chebyshev_reaction('bQOOH[O] (+ M) <=> bQOOHg (+ M)',
                   Tmin=180.0, Tmax=1500.0,
                   Pmin=(0.01, 'atm'), Pmax=(98.692, 'atm'),
                   coeffs=[[-7.92700e+00,  1.31200e+00,  2.08800e-01,  8.70900e-02,  1.15900e-02, -1.11800e-02, -9.17700e-03, -3.06400e-03],
                           [-2.32000e+00,  1.04600e+00, -1.99900e-01, -6.11600e-02,  5.20100e-03,  1.58700e-02,  8.44500e-03,  1.70300e-03],
                           [-3.30400e+00,  4.32000e-01, -3.46600e-02, -3.46200e-02, -1.59500e-02, -1.57700e-03,  1.90800e-03,  1.56300e-03],
                           [-2.03500e+00, -4.77200e-02,  9.14400e-03,  3.00200e-03, -9.77000e-03, -3.18600e-03,  4.77000e-04,  8.61700e-04],
                           [-9.27600e-01, -1.34300e-01, -1.06100e-02,  1.83600e-02,  3.12100e-03, -1.67800e-03, -1.23200e-03, -4.97100e-04],
                           [-3.05600e-01, -3.31900e-02, -2.63900e-02,  1.60400e-03,  5.13600e-03,  3.32000e-04, -8.85600e-04, -3.95200e-04],
                           [-2.02000e-01,  6.61100e-02,  1.67000e-03, -5.04800e-03,  2.24300e-03,  1.57200e-03, -3.61900e-05, -3.44800e-04],
                           [-8.51700e-02,  5.83800e-02,  2.06800e-02, -1.98100e-03, -1.81300e-03,  3.60100e-04,  5.84300e-04,  1.46100e-04],
                           [-1.40000e-02,  5.98900e-03,  2.16900e-02,  7.90400e-03,  2.26200e-04, -5.67700e-04,  9.23700e-05,  1.10000e-04],
                           [-8.38300e-02, -2.59200e-02,  1.06300e-02,  9.74000e-03,  2.21700e-03, -7.83500e-04, -4.44200e-04,  9.42000e-05]])

# Reaction 7
chebyshev_reaction('O2 + bR (+ M) <=> bQOOHg (+ M)',
                   Tmin=180.0, Tmax=1500.0,
                   Pmin=(0.01, 'atm'), Pmax=(98.692, 'atm'),
                   coeffs=[[ 4.24900e+00,  5.93800e-01, -3.91700e-01, -4.17600e-02,  4.25700e-02, -3.81000e-03, -5.74600e-03,  2.12900e-03],
                           [-2.02500e+00,  1.39900e+00,  3.31200e-01, -4.33200e-02, -5.74100e-02,  1.58200e-02,  6.89100e-03, -4.20600e-03],
                           [-1.80900e+00,  2.59200e-01,  1.44100e-01,  7.46900e-02, -1.42500e-02, -1.41000e-02,  2.76600e-03,  2.40000e-03],
                           [-1.19700e+00, -1.16800e-01, -2.22500e-02,  4.82400e-02,  1.94500e-02, -6.13300e-03, -3.89900e-03,  8.68200e-04],
                           [-5.71300e-01, -1.01400e-01, -7.41200e-02, -4.30100e-03,  1.76100e-02,  4.49200e-03, -2.24100e-03, -1.09500e-03],
                           [-1.79500e-01,  8.92000e-03, -4.50700e-02, -2.74900e-02,  2.50600e-03,  5.59300e-03,  1.03500e-03, -7.75500e-04],
                           [-2.80500e-02,  7.76600e-02,  6.32600e-03, -2.24000e-02, -7.12200e-03,  1.84800e-03,  1.77600e-03,  1.50200e-04],
                           [-4.65900e-03,  6.76300e-02,  3.82400e-02, -3.86400e-03, -7.85600e-03, -1.69700e-03,  9.00300e-04,  5.09300e-04],
                           [-3.26200e-02,  2.01100e-02,  3.80300e-02,  9.72200e-03, -2.70400e-03, -2.50300e-03, -3.70900e-04,  3.09300e-04],
                           [-4.73100e-02, -2.53800e-02,  1.75900e-02,  1.29600e-02,  2.02700e-03, -1.39200e-03, -8.21000e-04, -4.44500e-05]])
#  bRO2(+M) <=> bQOOHa(+M)                             1.000e+00 0.000     0.000
#      TCHEB/ 180.000   1500.000 /
#      PCHEB/ 0.010     98.692   /
#      CHEB/ 10 8/
#      CHEB/ -1.112e+01   1.536e+00    -4.798e-03   -2.346e-03   -1.692e-02  /
#      CHEB/ 3.030e-03    9.989e-04    -6.984e-05   8.756e+00    1.718e+00   /
#      CHEB/ 2.467e-01    -6.444e-02   -1.001e-02   3.173e-03    1.541e-03   /
#      CHEB/ -4.146e-04   -2.160e+00   3.870e-01    1.102e-01    1.691e-03   /
#      CHEB/ 3.677e-04    2.065e-03    -8.993e-05   -5.385e-04   -1.248e+00  /
#      CHEB/ -1.741e-01   -3.038e-02   1.195e-02    1.163e-02    1.467e-03   /
#      CHEB/ -1.095e-03   -4.529e-04   -6.790e-01   -1.380e-01   -5.338e-02  /
#      CHEB/ 2.383e-03    5.288e-03    8.985e-04    -5.847e-04   -8.439e-05  /
#      CHEB/ -3.130e-01   -2.983e-02   -3.653e-03   -5.171e-04   -1.478e-03  /
#      CHEB/ -1.010e-03   -5.478e-05   2.553e-04    -1.670e-01   -1.698e-03  /
#      CHEB/ 1.884e-02    5.294e-03    -1.410e-03   -1.406e-03   -6.929e-05  /
#      CHEB/ 2.022e-04    -9.932e-02   -2.189e-02   1.316e-02    6.336e-03   /
#      CHEB/ 1.379e-03    -3.850e-04   -6.432e-05   7.982e-06    -8.654e-02  /
#      CHEB/ -2.290e-02   -5.338e-03   6.149e-03    1.584e-03    4.254e-04   /
#      CHEB/ 3.556e-05    -4.169e-05   -3.842e-02   -3.408e-02   -5.547e-03  /
#      CHEB/ 1.182e-03    1.330e-03    3.140e-04    8.289e-05    -4.644e-06  /
#  bQOOHg(+M) <=> bQOOHa(+M)                           1.000e+00 0.000     0.000
#      TCHEB/ 180.000   1500.000 /
#      PCHEB/ 0.010     98.692   /
#      CHEB/ 10 8/
#      CHEB/ -8.618e+00   1.822e+00    -8.182e-02   -9.550e-02   -3.699e-03  /
#      CHEB/ 7.260e-03    -1.453e-03   1.183e-03    -1.350e+00   2.367e+00   /
#      CHEB/ 4.398e-01    -4.300e-03   -4.168e-02   1.857e-03    6.955e-03   /
#      CHEB/ -2.759e-03   -3.089e+00   9.033e-02    -2.516e-02   5.801e-02   /
#      CHEB/ 3.139e-02    -2.690e-03   -4.458e-03   4.687e-04    -1.864e+00  /
#      CHEB/ -3.324e-01   -1.013e-01   6.555e-03    1.405e-02    2.140e-03   /
#      CHEB/ -1.412e-03   6.180e-05    -8.546e-01   -1.018e-01   -5.837e-02  /
#      CHEB/ -1.557e-02   -3.558e-03   1.991e-03    -7.500e-05   -1.401e-04  /
#      CHEB/ -2.636e-01   4.737e-03    -1.225e-02   -3.030e-03   -5.093e-03  /
#      CHEB/ -2.391e-03   1.449e-03    1.426e-04    -1.168e-01   1.055e-01   /
#      CHEB/ 1.605e-02    -6.342e-03   1.454e-03    -3.607e-05   -1.166e-03  /
#      CHEB/ 1.830e-04    -5.161e-02   4.969e-02    3.503e-02    7.443e-03   /
#      CHEB/ 1.255e-04    -9.638e-04   1.400e-04    -1.177e-05   -8.489e-02  /
#      CHEB/ 1.042e-02    2.066e-02    1.140e-02    1.652e-03    3.051e-05   /
#      CHEB/ -2.629e-04   -6.916e-05   -7.986e-02   -4.134e-02   1.824e-03   /
#      CHEB/ 7.970e-03    3.521e-03    1.092e-04    -2.459e-04   -7.403e-06  /

# Reaction 8
chebyshev_reaction('bQOOH[O] (+ M) <=> bQOOHa (+ M)',
                   Tmin=180.0, Tmax=1500.0,
                   Pmin=(0.01, 'atm'), Pmax=(98.692, 'atm'),
                   coeffs=[[-7.58700e+00,  2.11900e+00,  6.06700e-02,  4.86100e-02,  1.01300e-03, -2.70200e-04, -3.61000e-03, -2.05300e-03],
                           [-4.60200e+00,  1.79500e+00,  1.66600e-01, -1.02700e-01, -7.04300e-03,  9.64000e-03,  3.72400e-03,  8.71200e-05],
                           [-2.93700e+00,  9.96300e-02,  1.03100e-02, -4.79900e-02, -1.95600e-02,  1.99500e-03,  3.51200e-03,  1.56100e-03],
                           [-1.63400e+00, -2.23000e-01, -4.49500e-02,  1.09900e-02,  3.90100e-03, -1.59700e-03, -9.83800e-04,  2.28900e-05],
                           [-6.72000e-01, -5.11700e-02, -4.20900e-02,  1.11600e-02,  6.53300e-03, -8.64200e-04, -1.67000e-03, -5.08800e-04],
                           [-3.22900e-01,  5.78400e-02, -1.67400e-03,  2.15200e-03,  1.93900e-03, -8.44300e-04, -6.07100e-04, -4.03500e-05],
                           [-2.31900e-01,  5.56300e-02,  1.38400e-02,  1.18900e-03,  4.59400e-04, -1.79800e-04,  2.51100e-04,  2.98500e-04],
                           [-1.57100e-01,  1.52100e-02,  1.61300e-02,  3.55200e-03,  2.12600e-03,  4.75200e-04,  4.31900e-05, -3.75100e-05],
                           [-1.99600e-02, -1.19100e-02,  1.13800e-03,  3.71100e-03,  1.17500e-03,  7.33600e-04,  3.40900e-05, -1.06700e-04],
                           [-6.01800e-02, -2.52200e-02,  1.68600e-03,  8.44300e-04,  1.37900e-04,  1.93200e-04,  2.20200e-04,  6.88600e-05]])

# Reaction 9
chebyshev_reaction('O2 + bR (+ M) <=> bQOOHa (+ M)',
                   Tmin=180.0, Tmax=1500.0,
                   Pmin=(0.01, 'atm'), Pmax=(98.692, 'atm'),
                   coeffs=[[ 1.58100e+00,  2.44700e+00,  3.01300e-01, -9.41700e-02, -7.31500e-02, -6.53200e-03,  2.06600e-03,  8.04700e-04],
                           [-1.74500e+00,  4.42100e-01, -9.77700e-02,  5.77400e-02,  5.63900e-02,  1.64700e-02, -4.85100e-05, -2.96900e-03],
                           [-1.16000e+00,  2.21900e-01, -1.05100e-01, -1.43800e-02,  8.78200e-03,  1.43500e-03, -8.23500e-05,  1.36600e-03],
                           [-7.07400e-01,  1.87400e-01, -4.25900e-02, -3.00400e-02, -2.49400e-03, -1.46000e-03, -9.99500e-04,  1.38000e-04],
                           [-4.11100e-01,  1.60800e-01,  1.63300e-02, -1.07600e-02, -3.93300e-03, -9.59000e-04, -7.38000e-04, -4.57700e-04],
                           [-2.39800e-01,  9.99600e-02,  4.41800e-02,  3.05300e-03, -1.90500e-03, -8.25000e-04, -1.24700e-05, -5.90600e-05],
                           [-1.47300e-01,  3.67900e-02,  3.96500e-02,  1.02900e-02,  6.26700e-04, -7.39000e-04,  3.91200e-05,  1.65300e-04],
                           [-1.03200e-01, -1.26100e-02,  2.27500e-02,  1.02200e-02,  2.75500e-03, -3.44500e-04, -1.26000e-04,  9.59500e-05],
                           [-7.16900e-02, -3.29600e-02,  1.47400e-03,  7.87100e-03,  2.14700e-03,  4.09400e-04, -6.80500e-05, -5.79800e-06],
                           [-4.67600e-02, -4.28400e-02, -5.44200e-03,  1.99700e-03,  1.67500e-03,  3.86300e-04,  3.75700e-05, -2.86000e-05]])
#  bRO2(+M) <=> bQOOH[O](+M)                           1.000e+00 0.000     0.000
#      TCHEB/ 180.000   1500.000 /
#      PCHEB/ 0.010     98.692   /
#      CHEB/ 10 8/
#      CHEB/ -1.033e+01   2.051e+00    -1.405e-02   -5.041e-03   -2.045e-03  /
#      CHEB/ -2.840e-04   3.989e-05    2.442e-05    6.664e+00    1.529e-01   /
#      CHEB/ 7.287e-03    5.166e-03    5.589e-04    2.155e-04    1.155e-04   /
#      CHEB/ 8.748e-05    -2.795e+00   9.840e-02    -1.324e-02   -4.719e-03  /
#      CHEB/ -2.149e-03   -2.168e-04   1.033e-04    5.236e-05    -1.414e+00  /
#      CHEB/ 9.460e-02    3.001e-03    1.229e-03    -1.439e-04   7.425e-05   /
#      CHEB/ 8.260e-05    4.218e-05    -6.598e-01   5.978e-02    2.761e-03   /
#      CHEB/ 2.717e-04    -6.493e-05   1.366e-04    1.009e-04    3.218e-05   /
#      CHEB/ -3.887e-01   3.471e-02    6.999e-03    1.428e-03    3.347e-04   /
#      CHEB/ 1.085e-04    4.577e-05    1.141e-05    -3.015e-01   7.884e-03   /
#      CHEB/ 6.616e-03    1.566e-03    5.771e-04    1.708e-04    3.896e-05   /
#      CHEB/ -8.573e-07   -1.880e-01   -8.523e-03   6.748e-03    2.193e-03   /
#      CHEB/ 6.948e-04    1.187e-04    -5.819e-07   -7.441e-06   -3.639e-02  /
#      CHEB/ -2.348e-02   2.193e-03    1.270e-03    4.430e-04    8.389e-05   /
#      CHEB/ 1.543e-06    -5.340e-06   -5.946e-02   -2.494e-02   1.065e-03   /
#      CHEB/ 1.845e-03    6.098e-04    8.383e-05    -2.079e-05   -1.129e-05  /
#  bQOOHg(+M) <=> bQOOH[O](+M)                         1.000e+00 0.000     0.000
#      TCHEB/ 180.000   1500.000 /
#      PCHEB/ 0.010     98.692   /
#      CHEB/ 10 8/
#      CHEB/ -8.263e+00   1.312e+00    2.088e-01    8.709e-02    1.159e-02   /
#      CHEB/ -1.118e-02   -9.177e-03   -3.064e-03   -2.731e+00   1.046e+00   /
#      CHEB/ -1.999e-01   -6.116e-02   5.201e-03    1.587e-02    8.445e-03   /
#      CHEB/ 1.703e-03    -3.456e+00   4.320e-01    -3.466e-02   -3.462e-02  /
#      CHEB/ -1.595e-02   -1.577e-03   1.908e-03    1.563e-03    -2.093e+00  /