units(length='cm', time='s', quantity='mol', act_energy='kcal/mol')

ideal_gas(name='gas',
          elements="H D T C Ci O Oi N Ne Ar He Si S F Cl Br I X",
          species="""aOOHbalkene      OH               ibutanal
                     aR               performic_acid   disub_c4ether
                     aQOOHb           H                aadduct
                     trisub_epoxy     ibutenol         aQOOH[O]
                     ipropyl          aRO2             O2
                     formic_acid      propene          aQOOHg
                     ibut_peroxyacid  HO2              CH3""",
          reactions='all',
          initial_state=state(temperature=300.0, pressure=OneAtm))

#-------------------------------------------------------------------------------
# Element data
#-------------------------------------------------------------------------------

element(symbol='Ci', atomic_mass=13.003)
element(symbol='D', atomic_mass=2.014)
element(symbol='Oi', atomic_mass=18.0)
element(symbol='T', atomic_mass=3.016)
element(symbol='X', atomic_mass=195.083)
#-------------------------------------------------------------------------------
# Species data
#-------------------------------------------------------------------------------

species(name='aOOHbalkene',
        atoms='C:3 H:6 O:3',
        thermo=(NASA([10.00, 497.41],
                     [ 3.76691735E+00,  1.51417956E-02,  1.85499431E-04,
                      -4.61303214E-07,  3.27678941E-10, -3.01376803E+04,
                       1.09903968E+01]),
                NASA([497.41, 3000.00],
                     [ 6.20882781E+00,  4.08866173E-02, -2.89934946E-05,
                       9.60428979E-09, -1.19355432E-12, -3.09420096E+04,
                      -4.72842811E+00])))

species(name='OH',
        atoms='H:1 O:1',
        thermo=(NASA([10.00, 984.14],
                     [ 3.49686242E+00,  1.83973160E-04, -9.97634499E-07,
                       1.56942783E-09, -6.10128175E-13,  3.41673934E+03,
                       1.48093120E+00]),
                NASA([984.14, 3000.00],
                     [ 3.45221464E+00, -2.95124034E-04,  7.39418622E-07,
                      -2.89309866E-10,  3.53041498E-14,  3.45751599E+03,
                       1.85813897E+00])))

species(name='ibutanal',
        atoms='C:4 H:8 O:1',
        thermo=(NASA([10.00, 683.88],
                     [ 3.57157346E+00,  3.36936906E-02, -1.78475021E-05,
                       1.31946716E-08, -7.58008388E-12, -2.51580693E+04,
                       1.05595084E+01]),
                NASA([683.88, 3000.00],
                     [ 1.29043622E+00,  4.14804229E-02, -2.27411206E-05,
                       6.08619500E-09, -6.38995128E-13, -2.47161501E+04,
                       2.16477430E+01])))

species(name='aR',
        atoms='C:4 H:9 O:1',
        thermo=(NASA([10.00, 455.22],
                     [ 3.59625500E+00,  3.38947981E-02,  7.37257079E-06,
                      -3.99275335E-08,  2.49019944E-11, -1.65634456E+04,
                       1.18269265E+01]),
                NASA([455.22, 3000.00],
                     [ 2.49586309E+00,  4.35639890E-02, -2.44887770E-05,
                       6.73363769E-09, -7.23862433E-13, -1.64632624E+04,
                       1.62696907E+01])))

species(name='performic_acid',
        atoms='C:1 H:2 O:3',
        thermo=(NASA([10.00, 590.95],
                     [ 3.92633851E+00,  4.24517168E-03,  6.71106764E-05,
                      -1.36545385E-07,  8.03337864E-11, -3.63028176E+04,
                       8.06485813E+00]),
                NASA([590.95, 3000.00],
                     [ 4.39992934E+00,  1.85411415E-02, -1.36005501E-05,
                       4.62292431E-09, -5.88463603E-13, -3.66643888E+04,
                       3.44353230E+00])))

species(name='disub_c4ether',
        atoms='C:4 H:8 O:2',
        thermo=(NASA([10.00, 413.50],
                     [ 3.78241323E+00,  1.89501763E-02,  8.65302396E-05,
                      -1.80580575E-07,  1.13656264E-10, -3.84770651E+04,
                       1.09982450E+01]),
                NASA([413.50, 3000.00],
                     [ 4.29420885E-01,  5.13851903E-02, -3.11292293E-05,
                       9.11498284E-09, -1.03192718E-12, -3.81997708E+04,
                       2.42134976E+01])))

species(name='aQOOHb',
        atoms='C:4 H:9 O:3',
        thermo=(NASA([10.00, 412.78],
                     [ 3.15498836E+00,  8.55068303E-02, -2.35307993E-04,
                       4.71983261E-07, -3.62709267E-10, -2.83632466E+04,
                       1.52522123E+01]),
                NASA([412.78, 3000.00],
                     [ 4.18099845E+00,  5.26168288E-02, -3.23998410E-05,
                       9.59389339E-09, -1.09464519E-12, -2.82524517E+04,
                       1.35782328E+01])))

species(name='H',
        atoms='H:1',
        thermo=(NASA([10.00, 794.01],
                     [ 2.50000000E+00,  1.99051163E-15, -1.19089508E-17,
                       2.10805655E-20, -1.11017699E-23,  2.54725594E+04,
                      -4.61279342E-01]),
                NASA([794.01, 3000.00],
                     [ 2.50000000E+00,  1.52667235E-14, -1.58445285E-17,
                       6.63088600E-21, -9.62111674E-25,  2.54725594E+04,
                      -4.61279342E-01])))

species(name='aadduct',
        atoms='C:4 H:9 O:3',
        thermo=(NASA([10.00, 449.84],
                     [ 3.06901904E+00,  9.20724491E-02, -2.68085092E-04,
                       5.15249897E-07, -3.68046586E-10, -2.96189923E+04,
                       1.46591735E+01]),
                NASA([449.84, 3000.00],
                     [ 4.11210745E+00,  5.16955724E-02, -2.97401041E-05,
                       8.32758939E-09, -9.08861448E-13, -2.93981513E+04,
                       1.39578825E+01])))

species(name='trisub_epoxy',
        atoms='C:4 H:8 O:2',
        thermo=(NASA([10.00, 209.19],
                     [ 3.75295042E+00,  2.37546930E-02,  1.26610110E-04,
                      -4.78364365E-07,  5.79468168E-10, -4.05410682E+04,
                       1.12739684E+01]),
                NASA([209.19, 3000.00],
                     [ 2.64185254E+00,  4.50006531E-02, -2.57361066E-05,
                       7.15266054E-09, -7.72980731E-13, -4.04945826E+04,
                       1.48960343E+01])))

species(name='ibutenol',
        atoms='C:4 H:8 O:1',
        thermo=(NASA([10.00, 135.97],
                     [ 3.95714996E+00,  5.72646980E-03,  4.63611760E-04,
                      -3.04137514E-06,  6.85019471E-09, -2.39933168E+04,
                       8.21931848E+00]),
                NASA([135.97, 3000.00],
                     [ 3.32467612E+00,  3.69033556E-02, -1.89960416E-05,
                       4.73417677E-09, -4.59705291E-13, -2.39877381E+04,
                       9.58133237E+00])))

species(name='aQOOH[O]',
        atoms='C:4 H:9 O:3',
        thermo=(NASA([10.00, 488.36],
                     [ 3.54559533E+00,  3.89536133E-02,  8.47689703E-05,
                      -2.45147486E-07,  1.76157259E-10, -2.41347438E+04,
                       1.34685910E+01]),
                NASA([488.36, 3000.00],
                     [ 3.94214913E+00,  5.71928314E-02, -3.72516212E-05,
                       1.15209013E-08, -1.35808341E-12, -2.44297048E+04,
                       9.21628964E+00])))

species(name='ipropyl',
        atoms='C:3 H:7',
        thermo=(NASA([10.00, 421.76],
                     [ 3.73943775E+00,  3.10070157E-02, -1.51196908E-04,
                       4.35367329E-07, -3.85565052E-10,  9.49213457E+03,
                       7.79448918E+00]),
                NASA([421.76, 3000.00],
                     [-4.74526725E-01,  3.20862468E-02, -1.67340747E-05,
                       4.21365136E-09, -4.13155573E-13,  1.01934458E+04,
                       2.85865912E+01])))

species(name='aRO2',
        atoms='C:4 H:9 O:3',
        thermo=(NASA([10.00, 670.36],
                     [ 3.45405325E+00,  4.74751311E-02,  9.77507759E-06,
                      -6.31019603E-08,  3.75500067E-11, -3.29831497E+04,
                       1.39284976E+01]),
                NASA([670.36, 3000.00],
                     [ 5.04137652E+00,  5.19952978E-02, -3.16472789E-05,
                       9.22798587E-09, -1.03598915E-12, -3.35103423E+04,
                       4.56056770E+00])))

species(name='O2',
        atoms='O:2',
        thermo=(NASA([10.00, 605.96],
                     [ 3.50743498E+00, -4.43860349E-04,  1.45938058E-06,
                       1.61509333E-09, -2.32050052E-12, -9.24756224E+02,
                       4.72183634E+00]),
                NASA([605.96, 3000.00],
                     [ 2.87462882E+00,  2.17840991E-03, -1.18262921E-06,
                       2.86910493E-10, -2.53297146E-14, -8.19517838E+02,
                       7.69331810E+00])))

species(name='formic_acid',
        atoms='C:1 H:2 O:2',
        thermo=(NASA([10.00, 741.38],
                     [ 4.06855785E+00, -4.74562133E-03,  4.71797900E-05,
                      -6.07490052E-08,  2.51286794E-11, -4.66880837E+04,
                       6.53681035E+00]),
                NASA([741.38, 3000.00],
                     [ 1.13645847E+00,  1.74953124E-02, -1.08112403E-05,
                       3.08075326E-09, -3.34892658E-13, -4.64297918E+04,
                       1.86149484E+01])))

species(name='propene',
        atoms='C:3 H:6',
        thermo=(NASA([10.00, 519.53],
                     [ 3.98723879E+00,  4.72040503E-04,  6.51776229E-05,
                      -9.89891002E-08,  4.91141123E-11,  1.12442014E+03,
                       6.98071210E+00]),
                NASA([519.53, 3000.00],
                     [ 3.79893331E-01,  2.82457690E-02, -1.50108430E-05,
                       3.90894069E-09, -4.00521928E-13,  1.49924748E+03,
                       2.20218922E+01])))

species(name='aQOOHg',
        atoms='C:4 H:9 O:3',
        thermo=(NASA([10.00, 455.48],
                     [ 3.62522127E+00,  2.83222320E-02,  2.08527447E-04,
                      -5.67427418E-07,  4.35169138E-10, -2.77773954E+04,
                       1.26617758E+01]),
                NASA([455.48, 3000.00],
                     [ 5.13914202E+00,  5.96270859E-02, -4.14435328E-05,
                       1.34202375E-08, -1.63474553E-12, -2.83779518E+04,
                       1.46991116E+00])))

species(name='ibut_peroxyacid',
        atoms='C:4 H:8 O:3',
        thermo=(NASA([10.00, 1386.21],
                     [ 3.50995385E+00,  4.78670384E-02, -2.40781384E-05,
                       3.71046938E-09,  3.85442115E-13, -4.81978621E+04,
                       1.22017268E+01]),
                NASA([1386.21, 3000.00],
                     [ 1.24543146E+01,  3.02396862E-02, -1.38577031E-05,
                       3.05328904E-09, -2.63982457E-13, -5.14637454E+04,
                      -3.67061828E+01])))

species(name='HO2',
        atoms='H:1 O:2',
        thermo=(NASA([10.00, 891.11],
                     [ 4.02887004E+00, -1.75769289E-03,  1.08726004E-05,
                      -1.13812972E-08,  3.90113097E-12,  4.95165001E+02,
                       4.69302008E+00]),
                NASA([891.11, 3000.00],
                     [ 3.06571044E+00,  4.28505005E-03, -2.19325920E-06,
                       5.58882699E-10, -5.61246669E-14,  5.98557610E+02,
                       8.84564156E+00])))

species(name='CH3',
        atoms='C:1 H:3',
        thermo=(NASA([10.00, 616.77],
                     [ 3.98929952E+00,  5.45150461E-04,  9.01320092E-06,
                      -1.08320497E-08,  4.38985879E-12,  1.65859883E+04,
                       2.22446886E-01]),
                NASA([616.77, 3000.00],
                     [ 3.35928237E+00,  4.63117126E-03, -9.24365433E-07,
                      -9.02514624E-11,  3.56905106E-14,  1.66637014E+04,
                       2.95743732E+00])))

#-------------------------------------------------------------------------------
# Reaction data
#-------------------------------------------------------------------------------

# Reaction 1
chebyshev_reaction('aQOOH[O] (+ M) <=> aQOOHb (+ M)',
                   Tmin=180.0, Tmax=1500.0,
                   Pmin=(0.01, 'atm'), Pmax=(98.692, 'atm'),
                   coeffs=[[-5.02700e+00,  3.68300e+00, -5.72300e-01, -4.56400e-02,  7.86000e-02, -2.63200e-02, -5.47800e-03,  8.85700e-03],
                           [-3.20800e+00,  4.12200e-01,  6.05200e-01,  6.70800e-02, -6.38600e-02,  3.55300e-02,  2.19700e-03, -1.24600e-02],
                           [-3.51700e+00, -3.27400e-01,  1.12900e-02,  3.31700e-02,  3.97700e-03, -2.99400e-03,  1.37200e-03,  2.71700e-03],
                           [-1.70100e+00, -2.47800e-01, -1.06000e-01, -1.12000e-02,  8.74900e-03, -2.08600e-03,  5.30700e-04,  3.78000e-04],
                           [-7.01300e-01, -4.57500e-02, -8.28400e-02, -2.26600e-02,  1.14100e-03,  1.97500e-03,  1.39300e-04, -4.50700e-04],
                           [-2.41000e-01,  5.50000e-02, -2.81100e-02, -1.78500e-02, -5.28100e-03,  1.38900e-03,  4.71500e-04, -2.10000e-04],
                           [-6.67600e-02,  5.92500e-02,  2.11200e-02, -1.07300e-02, -2.19000e-03, -1.57200e-03, -1.79600e-04,  5.59700e-04],
                           [-3.67100e-02,  4.17400e-02,  1.55400e-02,  8.47100e-03, -2.02100e-03, -6.35500e-04, -5.40000e-04, -2.54600e-04],
                           [-3.11400e-02,  3.63500e-03,  5.64200e-03,  8.36300e-03,  1.71900e-03,  8.63400e-05, -2.99500e-05, -5.64200e-04],
                           [-1.78900e-02, -2.60100e-02,  7.06800e-03, -6.46800e-03,  5.51700e-03,  6.96500e-04, -7.57400e-04,  8.10200e-04]])

# Reaction 2
chebyshev_reaction('aQOOHg (+ M) <=> aQOOHb (+ M)',
                   Tmin=180.0, Tmax=1500.0,
                   Pmin=(0.01, 'atm'), Pmax=(98.692, 'atm'),
                   coeffs=[[-5.73800e+00,  1.14300e+00,  1.47900e-01, -4.84300e-02, -4.42800e-02,  7.27800e-03,  7.28200e-03, -1.97000e-03],
                           [-3.84100e+00,  3.21200e+00,  3.76600e-01, -8.67100e-02, -1.67300e-02,  1.13400e-02,  2.23300e-03, -2.81700e-03],
                           [-4.39800e+00,  2.25500e-01, -6.00600e-03,  6.05200e-02,  4.84100e-02, -4.68200e-03, -1.26200e-02,  9.08800e-04],
                           [-2.23900e+00, -5.04000e-01, -2.94000e-01,  8.42200e-02,  5.93200e-02, -1.29600e-02, -1.06700e-02,  3.61700e-03],
                           [-7.73600e-01, -2.27900e-01, -2.61900e-01,  1.58100e-02,  2.55300e-02, -5.91100e-03,  9.12400e-04,  2.68400e-03],
                           [-1.58700e-01,  4.51000e-02, -8.79500e-02, -2.07400e-02, -1.48600e-02,  7.37600e-04,  8.82400e-03,  2.45500e-04],
                           [-4.32100e-03,  8.19700e-02,  3.76800e-02, -1.74300e-03, -2.84600e-02, -3.91800e-04,  7.83000e-03, -1.25000e-03],
                           [-2.60200e-02,  1.30900e-02,  5.18900e-02,  2.00400e-02, -1.47500e-02, -8.74700e-04,  1.83700e-03, -1.83900e-03],
                           [-4.89500e-02, -3.30800e-02,  1.30700e-02,  1.16300e-02,  1.29900e-03,  3.45800e-03, -2.42300e-03, -1.99000e-03],
                           [-3.14000e-02, -3.59700e-02, -9.97100e-03, -8.00600e-03,  3.47100e-03,  6.39300e-03, -2.41500e-03, -1.31500e-03]])

# Reaction 3
chebyshev_reaction('aRO2 (+ M) <=> aQOOHb (+ M)',
                   Tmin=180.0, Tmax=1500.0,
                   Pmin=(0.01, 'atm'), Pmax=(98.692, 'atm'),
                   coeffs=[[-7.42800e+00,  9.70500e-01,  1.32900e-01,  4.70200e-02,  1.52700e-03, -3.25000e-03, -4.17000e-04,  1.10400e-04],
                           [ 1.20600e+00,  1.22600e+00,  2.69900e-01,  6.72700e-02,  3.22100e-03, -4.85300e-03, -7.61200e-04,  2.64400e-04],
                           [-3.71700e+00,  1.95300e-01,  1.17200e-01,  3.62100e-02,  2.80700e-04, -2.05700e-03,  4.00800e-04,  4.73900e-04],
                           [-1.96400e+00, -1.93800e-01, -5.17400e-02, -2.21900e-03, -2.03700e-03, -1.34600e-03,  6.59900e-04,  6.61700e-04],
                           [-7.53900e-01, -1.01300e-01, -8.59700e-02, -2.87800e-02, -5.56200e-03, -8.58800e-04,  3.87100e-04,  4.80300e-04],
                           [-2.03600e-01,  5.13100e-02, -3.56900e-02, -2.48800e-02, -7.41700e-03, -9.69900e-04,  1.71900e-04,  1.95000e-04],
                           [-3.33800e-02,  9.15600e-02,  1.03200e-02, -6.51700e-03, -4.18600e-03, -1.30800e-03, -2.67500e-04, -4.23800e-06],
                           [-2.84400e-02,  5.26700e-02,  2.02400e-02,  5.83100e-03,  1.40000e-03, -4.14900e-04, -5.84500e-04, -2.21000e-04],
                           [-4.54100e-02,  8.26100e-03,  8.68500e-03,  6.54900e-03,  3.98000e-03,  9.13400e-04, -4.48900e-04, -3.61900e-04],
                           [-4.09100e-02, -1.37900e-02, -3.58900e-03,  9.52700e-04,  2.69300e-03,  1.58600e-03,  1.19500e-04, -2.65000e-04]])

# Reaction 4
chebyshev_reaction('aadduct (+ M) <=> aQOOHb (+ M)',
                   Tmin=180.0, Tmax=1500.0,
                   Pmin=(0.01, 'atm'), Pmax=(98.692, 'atm'),
                   coeffs=[[-8.60200e+00,  1.71100e+00,  2.31400e-01, -2.47200e-02, -3.91600e-02, -6.56800e-03,  3.96100e-03,  2.20800e-03],
                           [-4.90000e+00,  8.34900e-01,  2.98200e-02,  8.77600e-02,  5.25000e-02,  4.16100e-03, -7.24200e-03, -3.40600e-03],
                           [-4.48900e+00,  4.02500e-01, -2.39500e-02, -5.06500e-02, -7.93600e-03,  6.84400e-03,  3.99100e-03,  6.99000e-04],
                           [-2.20100e+00,  8.42300e-02, -6.09200e-02, -2.93600e-02, -3.44600e-03,  1.33500e-03,  7.89000e-04,  4.88000e-04],
                           [-8.35600e-01,  6.81900e-02, -7.96600e-02, -3.32300e-02,  4.85000e-04,  1.90800e-03, -1.82600e-04, -1.43600e-04],
                           [-1.80700e-01,  1.10800e-01, -4.90300e-02, -3.08300e-02, -2.84800e-03,  1.09200e-03,  8.59400e-05, -2.16900e-06],
                           [-1.61600e-01,  1.33300e-01,  6.64800e-03, -7.39900e-03, -1.46200e-04, -1.99400e-04, -5.58300e-04, -6.93700e-05],
                           [ 9.94800e-03,  4.38100e-02,  3.99300e-03,  3.46200e-03,  2.71600e-03, -1.24100e-03, -1.09300e-03, -2.24100e-05],
                           [-8.35100e-02,  1.61600e-02,  6.00300e-03,  9.73700e-03,  5.86900e-03, -1.54900e-05, -9.88300e-04, -2.42100e-04],
                           [-4.01900e-02, -1.60000e-02, -7.24300e-03,  4.25500e-03,  3.99300e-03,  7.23700e-04, -9.68700e-05, -3.28600e-05]])

# Reaction 5
chebyshev_reaction('O2 + aR (+ M) <=> aQOOHb (+ M)',
                   Tmin=180.0, Tmax=1500.0,
                   Pmin=(0.01, 'atm'), Pmax=(98.692, 'atm'),
                   coeffs=[[-1.21200e-01,  5.65200e+00, -6.79900e-01, -3.69600e-01,  8.19100e-02,  4.92100e-02, -2.03900e-02, -7.21200e-03],
                           [-1.28100e+00, -2.06500e+00,  1.31800e+00,  2.61800e-01, -1.90700e-01, -4.78300e-02,  3.72400e-02,  7.38100e-03],
                           [-1.51700e+00, -4.51500e-01, -1.00400e-02,  1.88400e-01,  3.59900e-02, -3.25100e-02, -1.13100e-02,  5.10400e-03],
                           [-8.58100e-01, -3.58300e-01, -1.47400e-01,  4.89400e-02,  4.10200e-02,  2.07400e-03, -8.71400e-03, -1.51900e-03],
                           [-3.53200e-01, -1.46600e-01, -1.10000e-01, -2.23200e-02,  1.94800e-02,  7.97600e-03, -1.62400e-03, -1.50900e-03],
                           [-1.01400e-01,  1.25000e-02, -4.42000e-02, -2.76000e-02,  5.07400e-04,  3.69800e-03,  1.36900e-03, -5.66600e-04],
                           [-1.67200e-02,  6.00900e-02,  2.79400e-03, -9.51800e-03, -5.66200e-03,  4.73300e-04,  4.42200e-04,  5.70400e-05],
                           [-1.57300e-02,  4.04600e-02,  1.52700e-02,  3.71000e-03, -1.91400e-03, -7.79800e-04, -3.36400e-04, -3.47700e-05],
                           [-2.11900e-02,  2.70900e-03,  8.32200e-03,  4.19700e-03,  2.45600e-03, -1.34400e-04, -2.58900e-04, -2.30900e-04],
                           [-1.77800e-02, -1.66900e-02, -1.05900e-03, -1.06000e-03,  2.22300e-03,  1.07000e-03,  5.85400e-05, -1.11000e-04]])
#  aQOOHb(+M) <=> aQOOH[O](+M)                         1.000e+00 0.000     0.000
#      TCHEB/ 180.000   1500.000 /
#      PCHEB/ 0.010     98.692   /
#      CHEB/ 10 8/
#      CHEB/ -1.223e+01   3.683e+00    -5.723e-01   -4.564e-02   7.860e-02   /
#      CHEB/ -2.632e-02   -5.478e-03   8.857e-03    1.103e+00    4.122e-01   /
#      CHEB/ 6.052e-01    6.708e-02    -6.386e-02   3.553e-02    2.197e-03   /
#      CHEB/ -1.246e-02   -3.439e+00   -3.274e-01   1.129e-02    3.317e-02   /
#      CHEB/ 3.977e-03    -2.994e-03   1.372e-03    2.717e-03    -1.655e+00  /
#      CHEB/ -2.478e-01   -1.060e-01   -1.120e-02   8.749e-03    -2.086e-03  /
#      CHEB/ 5.307e-04    3.780e-04    -6.859e-01   -4.575e-02   -8.284e-02  /
#      CHEB/ -2.266e-02   1.141e-03    1.975e-03    1.393e-04    -4.507e-04  /
#      CHEB/ -2.363e-01   5.500e-02    -2.811e-02   -1.785e-02   -5.281e-03  /
#      CHEB/ 1.389e-03    4.715e-04    -2.100e-04   -6.495e-02   5.925e-02   /
#      CHEB/ 2.112e-02    -1.073e-02   -2.190e-03   -1.572e-03   -1.796e-04  /
#      CHEB/ 5.597e-04    -3.600e-02   4.174e-02    1.554e-02    8.471e-03   /
#      CHEB/ -2.021e-03   -6.355e-04   -5.400e-04   -2.546e-04   -3.094e-02  /
#      CHEB/ 3.635e-03    5.642e-03    8.363e-03    1.719e-03    8.634e-05   /
#      CHEB/ -2.995e-05   -5.642e-04   -1.788e-02   -2.601e-02   7.068e-03   /
#      CHEB/ -6.468e-03   5.517e-03    6.965e-04    -7.574e-04   8.102e-04   /

# Reaction 6
chebyshev_reaction('aQOOHg (+ M) <=> aQOOH[O] (+ M)',
                   Tmin=180.0, Tmax=1500.0,
                   Pmin=(0.01, 'atm'), Pmax=(98.692, 'atm'),
                   coeffs=[[-4.39500e+00,  1.91800e+00, -4.90600e-01,  1.86800e-01, -2.34000e-02, -8.60800e-03,  5.82800e-03, -1.42400e-03],
                           [-1.79800e+00,  3.23800e-01,  4.08900e-01, -9.12100e-02,  3.22100e-02,  7.13600e-04, -4.73600e-03,  1.84700e-03],
                           [-4.31700e+00, -3.35200e-01,  9.02400e-02,  1.81500e-02, -1.04500e-02,  5.47900e-03,  4.01100e-04, -3.14800e-04],
                           [-1.82800e+00, -3.40300e-01, -8.70000e-02,  6.00300e-03, -4.16300e-03, -1.26000e-04,  1.42000e-03,  1.29300e-04],
                           [-6.59900e-01, -1.93700e-02, -1.08700e-01, -2.56300e-02,  7.80200e-04, -9.89100e-06,  1.81000e-04,  1.56500e-04],
                           [-2.16400e-01,  1.51900e-01, -2.54800e-02, -2.92400e-02, -6.00600e-03,  1.00500e-03,  2.83300e-04, -1.07500e-04],
                           [-7.33800e-02,  9.82200e-02,  4.54100e-02, -5.19800e-03, -8.85800e-03, -1.67100e-03,  4.81400e-04,  1.33900e-04],
                           [-7.58700e-02,  3.63600e-02,  2.74400e-02,  1.76000e-02, -1.39300e-03, -3.27000e-03, -4.69700e-04,  1.90900e-04],
                           [-6.05500e-02, -1.06000e-02, -2.53600e-03,  1.02500e-02,  6.63100e-03, -1.82400e-04, -1.34000e-03, -2.91400e-04],
                           [-3.99000e-03, -2.74100e-02, -7.02000e-03, -6.76000e-03,  5.55600e-03,  2.56000e-03, -3.93300e-04, -5.82000e-04]])

# Reaction 7
chebyshev_reaction('aRO2 (+ M) <=> aQOOH[O] (+ M)',
                   Tmin=180.0, Tmax=1500.0,
                   Pmin=(0.01, 'atm'), Pmax=(98.692, 'atm'),
                   coeffs=[[-9.37300e+00,  3.61600e+00,  1.33800e-01, -9.99700e-02, -1.78300e-01,  4.61200e-02,  5.70100e-02, -2.12500e-02],
                           [ 6.33700e+00,  3.01500e-01, -2.35500e-01,  7.53400e-02,  2.34000e-01, -4.90900e-02, -8.22900e-02,  2.33300e-02],
                           [-3.21900e+00, -1.67700e-01, -3.75100e-02,  4.41400e-02, -2.73200e-02, -1.04800e-02,  2.02900e-02,  4.22800e-03],
                           [-1.47300e+00, -1.28000e-01,  8.39200e-03, -1.32400e-02, -2.61500e-02,  1.24400e-02,  4.21000e-03, -9.56300e-03],
                           [-5.87100e-01, -1.55600e-02, -9.43000e-03, -9.02200e-03, -3.09400e-03, -1.67300e-03, -2.47900e-03,  1.53500e-03],
                           [-1.96700e-01,  2.63300e-02, -1.75300e-02, -9.17200e-03,  3.64600e-03, -2.54600e-03, -1.20600e-03,  2.34600e-03],
                           [-3.94200e-02, -3.84900e-03,  3.02900e-03, -5.44800e-03,  9.28500e-04,  1.46700e-04,  2.67500e-04,  1.76500e-04],
                           [-2.07100e-02, -9.53000e-04, -6.25600e-03,  2.17800e-03, -8.01700e-04,  1.07200e-03,  8.49500e-04, -4.04100e-04],
                           [-1.12600e-02, -1.41000e-02,  2.60000e-04,  2.89000e-03, -4.18400e-05,  1.27000e-03,  5.39000e-04, -8.65700e-04],
                           [ 5.69100e-03, -3.86700e-02,  1.18500e-02,  1.65300e-03, -8.86300e-06, -1.18800e-03,  8.88200e-04,  8.10000e-04]])

# Reaction 8
chebyshev_reaction('aadduct (+ M) <=> aQOOH[O] (+ M)',
                   Tmin=180.0, Tmax=1500.0,
                   Pmin=(0.01, 'atm'), Pmax=(98.692, 'atm'),
                   coeffs=[[-1.03900e+01,  4.26000e+00,  3.52000e-01, -1.20300e-01, -2.20100e-01,  3.31300e-02,  5.73200e-02, -1.90500e-02],
                           [ 2.45100e-01, -7.27900e-01, -5.38700e-01,  8.26900e-02,  2.77300e-01, -3.17500e-02, -8.01300e-02,  2.09900e-02],
                           [-3.88100e+00, -2.55000e-01, -9.44500e-02,  2.03000e-03, -3.89300e-02, -8.78000e-03,  2.25100e-02,  4.99000e-03],
                           [-1.68100e+00, -6.67700e-02,  4.57100e-02, -1.04000e-02, -2.84300e-02,  1.22700e-02,  4.48000e-03, -9.55000e-03],
                           [-7.00500e-01,  2.15200e-02,  1.61400e-02,  1.79100e-03,  8.41600e-04, -8.12600e-04, -2.63600e-03,  1.13300e-03],
                           [-2.29300e-01,  4.00900e-02, -1.47800e-02, -5.18100e-03,  6.04400e-03, -2.36900e-03, -1.48700e-03,  2.09000e-03],
                           [-2.26800e-01,  4.27200e-02,  1.31500e-02, -2.18900e-03,  2.19500e-03,  5.42800e-05, -6.52800e-05,  9.45400e-05],
                           [-3.24300e-02,  1.42600e-02, -1.05600e-02,  5.59500e-05, -2.07500e-03,  3.65800e-07,  4.02400e-04, -3.86800e-04],
                           [-8.65000e-02,  1.52100e-02,  5.14600e-03,  2.80700e-03, -8.79800e-04,  7.44400e-04,  3.42300e-04, -8.09000e-04],
                           [-1.56800e-02, -2.59800e-02,  1.38500e-02,  1.18400e-03, -8.20500e-04, -1.33400e-03,  9.93700e-04,  9.19800e-04]])

# Reaction 9
chebyshev_reaction('O2 + aR (+ M) <=> aQOOH[O] (+ M)',
                   Tmin=180.0, Tmax=1500.0,
                   Pmin=(0.01, 'atm'), Pmax=(98.692, 'atm'),
                   coeffs=[[-1.35100e+00,  4.87000e+00,  1.79500e-01,  3.00300e-01,  5.19100e-02, -1.90500e-01, -7.73700e-02,  4.33900e-02],
                           [-2.63300e+00, -1.48300e+00,  1.09800e-01, -3.48000e-01,  4.67200e-02,  2.69200e-01,  6.23800e-02, -7.61400e-02],
                           [-1.20800e+00, -5.21200e-01,  3.36600e-02,  5.11900e-03, -1.10000e-01, -1.51200e-02,  4.66300e-02,  2.38200e-02],
                           [-6.01100e-01, -2.11600e-01,  6.12400e-02,  8.68400e-02, -5.12400e-02, -7.07400e-02, -4.36700e-03,  2.50000e-02],
                           [-2.99100e-01, -6.42200e-02, -9.40100e-03,  6.65300e-02,  2.57100e-02, -2.82600e-02, -2.64400e-02, -4.29500e-03],
                           [-1.29900e-01, -2.95000e-04, -5.86600e-02,  4.30000e-03,  4.14500e-02,  1.47600e-02, -1.05600e-02, -1.30700e-02],
                           [-4.50100e-02,  7.51800e-03, -4.44400e-02, -2.58300e-02,  1.72300e-02,  2.07500e-02,  6.22200e-03, -3.34700e-03],
                           [-2.08600e-02,  1.28000e-02, -1.19500e-02, -1.99700e-02, -6.60200e-03,  5.47500e-03,  7.78900e-03,  5.84700e-03],
                           [-1.76500e-02,  4.52600e-03,  9.14900e-03, -2.45100e-03, -9.17700e-03, -5.24300e-03, -5.05000e-04,  3.83700e-03],
                           [-1.52600e-03, -7.16400e-03,  9.52800e-03,  2.37100e-03, -1.05200e-03, -3.13100e-03, -4.17200e-03, -2.33900e-03]])
#  aQOOHb(+M) <=> aQOOHg(+M)                           1.000e+00 0.000     0.000
#      TCHEB/ 180.000   1500.000 /
#      PCHEB/ 0.010     98.692   /
#      CHEB/ 10 8/
#      CHEB/ -8.219e+00   1.143e+00    1.479e-01    -4.843e-02   -4.428e-02  /
#      CHEB/ 7.278e-03    7.282e-03    -1.970e-03   -3.094e+00   3.212e+00   /
#      CHEB/ 3.766e-01    -8.671e-02   -1.673e-02   1.134e-02    2.233e-03   /
#      CHEB/ -2.817e-03   -4.175e+00   2.255e-01    -6.006e-03   6.052e-02   /
#      CHEB/ 4.841e-02    -4.682e-03   -1.262e-02   9.088e-04    -2.144e+00  /
#      CHEB/ -5.040e-01   -2.940e-01   8.422e-02    5.932e-02    -1.296e-02  /
#      CHEB/ -1.067e-02   3.617e-03    -7.454e-01   -2.279e-01   -2.619e-01  /
#      CHEB/ 1.581e-02    2.553e-02    -5.911e-03   9.124e-04    2.684e-03   /
#      CHEB/ -1.509e-01   4.510e-02    -8.795e-02   -2.074e-02   -1.486e-02  /
#      CHEB/ 7.376e-04    8.824e-03    2.455e-04    -1.811e-03   8.197e-02   /
#      CHEB/ 3.768e-02    -1.743e-03   -2.846e-02   -3.918e-04   7.830e-03   /
#      CHEB/ -1.250e-03   -2.529e-02   1.309e-02    5.189e-02    2.004e-02   /
#      CHEB/ -1.475e-02   -8.747e-04   1.837e-03    -1.839e-03   -4.893e-02  /
#      CHEB/ -3.308e-02   1.307e-02    1.163e-02    1.299e-03    3.458e-03   /
#      CHEB/ -2.423e-03   -1.990e-03   -3.154e-02   -3.597e-02   -9.971e-03  /
#      CHEB/ -8.006e-03   3.471e-03    6.393e-03    -2.415e-03   -1.315e-03  /
#  aQOOH[O](+M) <=> aQOOHg(+M)                         1.000e+00 0.000     0.000
#      TCHEB/ 180.000   1500.000 /
#      PCHEB/ 0.010     98.692   /
#      CHEB/ 10 8/
#      CHEB/ 3.304e-01    1.918e+00    -4.906e-01   1.868e-01    -2.340e-02  /
#      CHEB/ -8.608e-03   5.828e-03    -1.424e-03   -5.361e+00   3.238e-01   /
#      CHEB/ 4.089e-01    -9.121e-02   3.221e-02    7.136e-04    -4.736e-03  /
#      CHEB/ 1.847e-03    -4.172e+00   -3.352e-01   9.024e-02    1.815e-02   /
#      CHEB/ -1.045e-02   5.479e-03    4.011e-04    -3.148e-04   -1.780e+00  /
#      CHEB/ -3.403e-01   -8.700e-02   6.003e-03    -4.163e-03   -1.260e-04  /
#      CHEB/ 1.420e-03    1.293e-04    -6.470e-01   -1.937e-02   -1.087e-01  /
#      CHEB/ -2.563e-02   7.802e-04    -9.891e-06   1.810e-04    1.565e-04   /