units(length='cm', time='s', quantity='mol', act_energy='kcal/mol')

ideal_gas(name='gas',
          elements="H D T C Ci O Oi N Ne Ar He Si S F Cl Br I X",
          species="""OH             bQOOH[O]       acetone
                     H2O            balkoxyketone  ibutenol
                     trisub_epoxy   bQOOHg         CH2O
                     galkene        O2             bR
                     bQOOHa         bRO2           disub_epoxy
                     HO2""",
          reactions='all',
          initial_state=state(temperature=300.0, pressure=OneAtm))

#-------------------------------------------------------------------------------
# Element data
#-------------------------------------------------------------------------------

element(symbol='Ci', atomic_mass=13.003)
element(symbol='D', atomic_mass=2.014)
element(symbol='Oi', atomic_mass=18.0)
element(symbol='T', atomic_mass=3.016)
element(symbol='X', atomic_mass=195.083)
#-------------------------------------------------------------------------------
# Species data
#-------------------------------------------------------------------------------

species(name='OH',
        atoms='H:1 O:1',
        thermo=(NASA([10.00, 984.14],
                     [ 3.49686242E+00,  1.83973160E-04, -9.97634499E-07,
                       1.56942783E-09, -6.10128175E-13,  3.41673934E+03,
                       1.48093120E+00]),
                NASA([984.14, 3000.00],
                     [ 3.45221464E+00, -2.95124034E-04,  7.39418622E-07,
                      -2.89309866E-10,  3.53041498E-14,  3.45751599E+03,
                       1.85813897E+00])))

species(name='bQOOH[O]',
        atoms='C:4 H:9 O:3',
        thermo=(NASA([10.00, 338.69],
                     [ 3.60915854E+00,  3.39069566E-02,  2.22227265E-04,
                      -8.23527342E-07,  8.56246333E-10, -2.28231014E+04,
                       1.23284605E+01]),
                NASA([338.69, 3000.00],
                     [ 5.03198881E+00,  5.46235886E-02, -3.56935806E-05,
                       1.12371751E-08, -1.35390171E-12, -2.31346841E+04,
                       3.82760723E+00])))

species(name='acetone',
        atoms='C:3 H:6 O:1',
        thermo=(NASA([10.00, 414.35],
                     [ 3.73496166E+00,  3.05743218E-02, -1.26253585E-04,
                       3.66080978E-07, -3.31430437E-10, -2.82849227E+04,
                       8.24936012E+00]),
                NASA([414.35, 3000.00],
                     [ 1.70010292E-01,  3.28431468E-02, -1.80960132E-05,
                       4.82960690E-09, -5.02388538E-13, -2.77135396E+04,
                       2.56372653E+01])))

species(name='H2O',
        atoms='H:2 O:1',
        thermo=(NASA([10.00, 773.84],
                     [ 4.00473541E+00, -2.39729134E-04,  8.11862955E-07,
                       1.47891862E-09, -1.19783539E-12, -3.03533807E+04,
                      -9.96254147E-02]),
                NASA([773.84, 3000.00],
                     [ 3.52133374E+00,  1.05377009E-03,  6.40722099E-07,
                      -3.86240235E-10,  5.49243294E-14, -3.02424794E+04,
                       2.34173094E+00])))

species(name='balkoxyketone',
        atoms='C:4 H:7 O:2',
        thermo=(NASA([10.00, 269.93],
                     [ 3.81931151E+00,  1.68519318E-02,  2.42742224E-04,
                      -9.64821161E-07,  1.18509335E-09, -1.97192139E+04,
                       1.20521854E+01]),
                NASA([269.93, 3000.00],
                     [ 3.57555944E+00,  4.28868089E-02, -2.65390705E-05,
                       7.99659117E-09, -9.32983470E-13, -1.97877420E+04,
                       1.13957990E+01])))

species(name='ibutenol',
        atoms='C:4 H:8 O:1',
        thermo=(NASA([10.00, 135.97],
                     [ 3.95714996E+00,  5.72646980E-03,  4.63611760E-04,
                      -3.04137514E-06,  6.85019471E-09, -2.20394640E+04,
                       8.21931848E+00]),
                NASA([135.97, 3000.00],
                     [ 3.32467612E+00,  3.69033556E-02, -1.89960416E-05,
                       4.73417677E-09, -4.59705291E-13, -2.20338853E+04,
                       9.58133237E+00])))

species(name='trisub_epoxy',
        atoms='C:4 H:8 O:2',
        thermo=(NASA([10.00, 209.19],
                     [ 3.75295042E+00,  2.37546930E-02,  1.26610110E-04,
                      -4.78364365E-07,  5.79468168E-10, -3.82650633E+04,
                       1.12739684E+01]),
                NASA([209.19, 3000.00],
                     [ 2.64185254E+00,  4.50006531E-02, -2.57361066E-05,
                       7.15266054E-09, -7.72980731E-13, -3.82185777E+04,
                       1.48960343E+01])))

species(name='bQOOHg',
        atoms='C:4 H:9 O:3',
        thermo=(NASA([10.00, 441.09],
                     [ 3.56595280E+00,  3.36073467E-02,  2.03462772E-04,
                      -5.98977617E-07,  4.83271168E-10, -2.26787022E+04,
                       1.33537891E+01]),
                NASA([441.09, 3000.00],
                     [ 6.09031192E+00,  5.80517622E-02, -4.06392697E-05,
                       1.32574026E-08, -1.62501077E-12, -2.33618876E+04,
                      -1.97849715E+00])))

species(name='CH2O',
        atoms='C:1 H:2 O:1',
        thermo=(NASA([10.00, 601.31],
                     [ 4.03190845E+00, -1.93233367E-03,  8.89743345E-06,
                       2.98105926E-09, -7.90813886E-12, -1.42276270E+04,
                       3.47574660E+00]),
                NASA([601.31, 3000.00],
                     [ 1.40134195E+00,  9.48858016E-03, -4.43088317E-06,
                       9.48452194E-10, -7.43790219E-14, -1.38013869E+04,
                       1.57423780E+01])))

species(name='galkene',
        atoms='C:4 H:8 O:1',
        thermo=(NASA([10.00, 383.47],
                     [ 3.84035604E+00,  1.20378740E-02,  1.87486319E-04,
                      -5.44759148E-07,  4.80711015E-10, -2.05390930E+04,
                       1.02570291E+01]),
                NASA([383.47, 3000.00],
                     [ 4.00413385E+00,  3.79025144E-02, -2.15435710E-05,
                       6.15213311E-09, -6.97446345E-13, -2.07543823E+04,
                       6.98052628E+00])))

species(name='O2',
        atoms='O:2',
        thermo=(NASA([10.00, 605.96],
                     [ 3.50743498E+00, -4.43860349E-04,  1.45938058E-06,
                       1.61509333E-09, -2.32050052E-12, -9.24756224E+02,
                       4.72183634E+00]),
                NASA([605.96, 3000.00],
                     [ 2.87462882E+00,  2.17840991E-03, -1.18262921E-06,
                       2.86910493E-10, -2.53297146E-14, -8.19517838E+02,
                       7.69331810E+00])))

species(name='bR',
        atoms='C:4 H:9 O:1',
        thermo=(NASA([10.00, 483.43],
                     [ 3.38164846E+00,  5.97142637E-02, -1.58320095E-04,
                       3.04908893E-07, -2.13091806E-10, -1.41966686E+04,
                       1.09226843E+01]),
                NASA([483.43, 3000.00],
                     [ 2.33428824E+00,  4.22094427E-02, -2.28029290E-05,
                       6.04614564E-09, -6.30240159E-13, -1.37895866E+04,
                       1.83772893E+01])))

species(name='bQOOHa',
        atoms='C:4 H:9 O:3',
        thermo=(NASA([10.00, 390.53],
                     [ 3.54969236E+00,  3.76592474E-02,  1.76622653E-04,
                      -5.98063750E-07,  5.45069236E-10, -2.80226992E+04,
                       1.31518761E+01]),
                NASA([390.53, 3000.00],
                     [ 5.33564209E+00,  5.64935715E-02, -3.83214298E-05,
                       1.22990604E-08, -1.49549987E-12, -2.84453092E+04,
                       2.59015836E+00])))

species(name='bRO2',
        atoms='C:4 H:9 O:3',
        thermo=(NASA([10.00, 461.39],
                     [ 3.53964713E+00,  3.88723795E-02,  9.57420148E-05,
                      -2.80380499E-07,  2.09647462E-10, -3.38767765E+04,
                       1.18803618E+01]),
                NASA([461.39, 3000.00],
                     [ 3.47201723E+00,  6.00510247E-02, -4.00567321E-05,
                       1.25663813E-08, -1.49496682E-12, -3.40897232E+04,
                       9.77903975E+00])))

species(name='disub_epoxy',
        atoms='C:4 H:8 O:2',
        thermo=(NASA([10.00, 549.41],
                     [ 3.89863211E+00,  5.97532637E-03,  1.66685676E-04,
                      -3.10743768E-07,  1.78330192E-10, -3.78652916E+04,
                       1.13847308E+01]),
                NASA([549.41, 3000.00],
                     [-6.40277648E-01,  6.05960003E-02, -4.13427220E-05,
                       1.31555461E-08, -1.57685017E-12, -3.76921747E+04,
                       2.76005436E+01])))

species(name='HO2',
        atoms='H:1 O:2',
        thermo=(NASA([10.00, 891.11],
                     [ 4.02887004E+00, -1.75769289E-03,  1.08726004E-05,
                      -1.13812972E-08,  3.90113097E-12,  4.95165001E+02,
                       4.69302008E+00]),
                NASA([891.11, 3000.00],
                     [ 3.06571044E+00,  4.28505005E-03, -2.19325920E-06,
                       5.58882699E-10, -5.61246669E-14,  5.98557610E+02,
                       8.84564156E+00])))

#-------------------------------------------------------------------------------
# Reaction data
#-------------------------------------------------------------------------------

# Reaction 1
chebyshev_reaction('bQOOHg (+ M) <=> bRO2 (+ M)',
                   Tmin=180.0, Tmax=1500.0,
                   Pmin=(0.01, 'atm'), Pmax=(98.692, 'atm'),
                   coeffs=[[ 1.64700e+00,  1.06200e+00,  7.36700e-03, -1.07300e-02, -4.44000e-03,  4.19600e-04,  5.11400e-04,  5.06100e-06],
                           [-1.30000e+00,  1.45900e+00,  8.30600e-02, -1.61800e-02, -5.78800e-03,  1.53500e-04,  5.16600e-04,  3.84000e-05],
                           [-2.46700e+00,  4.28700e-01,  6.45600e-02,  2.20700e-02, -5.11800e-04, -1.65400e-03, -2.20200e-04,  7.50500e-05],
                           [-1.41900e+00, -1.08200e-01, -1.94800e-02,  3.03000e-02,  7.37900e-03, -1.35400e-03, -7.86700e-04,  2.08300e-05],
                           [-7.52500e-01, -1.50400e-01, -4.80800e-02,  7.56900e-03,  5.73000e-03,  8.73300e-04, -2.44700e-04, -8.80300e-05],
                           [-3.37900e-01, -4.09300e-02, -1.61400e-02, -6.74200e-03, -1.47400e-03,  8.50900e-04,  5.36000e-04,  5.76800e-05],
                           [-1.78100e-01,  1.98000e-02,  1.35100e-02, -2.00400e-03, -3.36500e-03, -7.04200e-04,  2.58100e-04,  1.86300e-04],
                           [-9.07900e-02,  8.23000e-03,  1.76800e-02,  4.52800e-03,  4.28600e-04, -8.22100e-04, -4.22000e-04,  8.95500e-06],
                           [-7.18600e-02, -1.66100e-02,  3.65600e-03,  4.72200e-03,  3.17300e-03,  3.53600e-04, -4.12700e-04, -1.81000e-04],
                           [-5.59400e-02, -2.60100e-02, -8.84800e-03,  8.47600e-04,  2.39900e-03,  9.77000e-04,  6.85300e-05, -1.08800e-04]])

# Reaction 2
chebyshev_reaction('bQOOHa (+ M) <=> bRO2 (+ M)',
                   Tmin=180.0, Tmax=1500.0,
                   Pmin=(0.01, 'atm'), Pmax=(98.692, 'atm'),
                   coeffs=[[-4.06000e+00,  2.41300e+00, -4.33100e-01,  5.49300e-02,  1.42600e-02, -1.52300e-02,  3.85100e-03,  1.27000e-03],
                           [ 3.38700e+00,  7.97000e-01,  5.68300e-01, -1.27100e-01, -2.61100e-02,  1.89200e-02, -3.09700e-03, -9.24000e-04],
                           [-2.33100e+00, -3.74000e-02,  1.65000e-01,  5.60600e-02, -1.27000e-02, -2.19800e-03,  5.31500e-04, -6.12200e-04],
                           [-1.33900e+00, -2.81800e-01, -4.66800e-02,  5.06800e-02,  1.40500e-02, -4.14100e-03, -1.36700e-03,  2.26000e-04],
                           [-6.80600e-01, -1.83300e-01, -7.04400e-02,  1.16400e-02,  8.05500e-03, -5.07000e-04, -5.28000e-06,  2.71200e-04],
                           [-3.31900e-01, -2.21100e-02, -2.87900e-02, -6.52400e-03, -1.32600e-03, -4.95900e-05,  7.58900e-04,  2.91400e-04],
                           [-1.64200e-01,  4.67200e-02,  3.87700e-03, -4.85000e-03, -2.24500e-03, -3.64800e-04,  7.05900e-05,  6.16500e-05],
                           [-1.07800e-01,  3.46800e-02,  1.01900e-02,  1.62600e-03,  1.18200e-03, -1.07200e-04, -5.65200e-04, -1.45800e-04],
                           [-6.68700e-02, -5.72800e-03,  4.34200e-03,  3.91900e-03,  2.82900e-03,  5.17600e-04, -4.40300e-04, -1.81700e-04],
                           [-4.01900e-02, -3.14600e-02, -2.38900e-03,  1.46800e-03,  1.75800e-03,  9.84800e-04, -1.36500e-05, -1.06700e-04]])

# Reaction 3
chebyshev_reaction('bQOOH[O] (+ M) <=> bRO2 (+ M)',
                   Tmin=180.0, Tmax=1500.0,
                   Pmin=(0.01, 'atm'), Pmax=(98.692, 'atm'),
                   coeffs=[[ 5.09400e+00,  1.04800e+00, -1.22100e-01,  5.42900e-03,  2.47300e-03,  1.38500e-04, -2.24700e-05, -1.09700e-05],
                           [-2.19200e+00,  1.00000e+00,  4.76400e-02, -2.64300e-02,  1.21900e-03,  2.32400e-03, -2.72900e-05, -2.37400e-04],
                           [-2.69400e+00,  1.01000e-02,  7.95000e-02,  1.77500e-02, -3.76300e-03, -9.13200e-04,  4.21200e-04,  5.76500e-05],
                           [-1.41400e+00, -2.00800e-01, -2.14100e-02,  1.92900e-02,  6.04000e-03, -1.13700e-03, -7.14500e-04,  9.45000e-05],
                           [-6.53300e-01, -8.23300e-02, -3.76400e-02, -4.77900e-03,  4.00300e-03,  1.57800e-03, -2.75300e-04, -2.33900e-04],
                           [-3.03100e-01,  1.41900e-02,  1.37300e-03, -6.49800e-03, -2.89100e-03,  4.25100e-04,  5.85300e-04,  2.97400e-05],
                           [-1.60800e-01,  2.00200e-02,  2.17500e-02,  5.72700e-03, -2.11100e-03, -1.50800e-03,  3.19100e-05,  2.48700e-04],
                           [-1.05200e-01, -1.25500e-02,  1.13900e-02,  9.92200e-03,  2.37800e-03, -7.15200e-04, -5.63700e-04, -2.63000e-05],
                           [-7.13200e-02, -3.42900e-02, -5.40100e-03,  3.88000e-03,  3.26800e-03,  9.46000e-04, -1.60300e-04, -2.15800e-04],
                           [-4.03200e-02, -3.22400e-02, -1.16800e-02, -2.56100e-03,  7.91500e-04,  1.01200e-03,  3.90700e-04, -2.56800e-05]])

# Reaction 4
chebyshev_reaction('O2 + bR (+ M) <=> bRO2 (+ M)',
                   Tmin=180.0, Tmax=1500.0,
                   Pmin=(0.01, 'atm'), Pmax=(98.692, 'atm'),
                   coeffs=[[ 1.18700e+01,  4.26400e-01, -4.13800e-02,  1.23400e-03, -3.58800e-04,  3.29700e-05, -5.88400e-06,  2.08500e-06],
                           [-1.19500e+00,  7.55300e-01, -5.62100e-02, -1.96300e-03, -3.46000e-05, -5.26700e-05,  7.57800e-06,  1.54100e-06],
                           [-8.66600e-01,  5.29200e-01, -4.33600e-03, -7.22400e-03,  1.37900e-04, -1.64800e-05, -6.79900e-06,  4.10200e-06],
                           [-6.45500e-01,  2.92900e-01,  3.22700e-02, -5.69300e-03, -8.00000e-04,  7.72400e-05, -4.66900e-06, -4.32100e-08],
                           [-4.40600e-01,  1.20700e-01,  4.00000e-02,  3.46400e-04, -1.34300e-03, -5.31700e-05,  2.48600e-05, -2.83900e-06],
                           [-2.86100e-01,  2.38400e-02,  2.94300e-02,  5.03500e-03, -6.92000e-04, -2.58000e-04,  1.40300e-05,  3.40700e-06],
                           [-1.80100e-01, -1.92000e-02,  1.50200e-02,  5.98500e-03,  4.29500e-04, -2.54100e-04, -4.06500e-05,  4.65500e-06],
                           [-1.10000e-01, -3.28500e-02,  4.25600e-03,  4.45600e-03,  1.10000e-03, -4.62000e-05, -7.16600e-05, -7.47300e-06],
                           [-6.40800e-02, -3.30200e-02, -1.85400e-03,  2.42700e-03,  1.11600e-03,  1.60000e-04, -4.63400e-05, -2.01500e-05],
                           [-3.43800e-02, -2.77600e-02, -4.71500e-03,  8.95800e-04,  7.94900e-04,  2.31900e-04,  2.73600e-06, -1.96400e-05]])
#  bRO2(+M) <=> bQOOHg(+M)                             1.000e+00 0.000     0.000
#      TCHEB/ 180.000   1500.000 /
#      PCHEB/ 0.010     98.692   /
#      CHEB/ 10 8/
#      CHEB/ -1.253e+01   1.062e+00    7.367e-03    -1.073e-02   -4.440e-03  /
#      CHEB/ 4.196e-04    5.114e-04    5.061e-06    1.098e+01    1.459e+00   /
#      CHEB/ 8.306e-02    -1.618e-02   -5.788e-03   1.535e-04    5.166e-04   /
#      CHEB/ 3.840e-05    -2.322e+00   4.287e-01    6.456e-02    2.207e-02   /
#      CHEB/ -5.118e-04   -1.654e-03   -2.202e-04   7.505e-05    -1.382e+00  /
#      CHEB/ -1.082e-01   -1.948e-02   3.030e-02    7.379e-03    -1.354e-03  /
#      CHEB/ -7.867e-04   2.083e-05    -7.467e-01   -1.504e-01   -4.808e-02  /
#      CHEB/ 7.569e-03    5.730e-03    8.733e-04    -2.447e-04   -8.803e-05  /
#      CHEB/ -3.381e-01   -4.093e-02   -1.614e-02   -6.742e-03   -1.474e-03  /
#      CHEB/ 8.509e-04    5.360e-04    5.768e-05    -1.787e-01   1.980e-02   /
#      CHEB/ 1.351e-02    -2.004e-03   -3.365e-03   -7.042e-04   2.581e-04   /
#      CHEB/ 1.863e-04    -9.125e-02   8.230e-03    1.768e-02    4.528e-03   /
#      CHEB/ 4.286e-04    -8.221e-04   -4.220e-04   8.955e-06    -7.218e-02  /
#      CHEB/ -1.661e-02   3.656e-03    4.722e-03    3.173e-03    3.536e-04   /
#      CHEB/ -4.127e-04   -1.810e-04   -5.613e-02   -2.601e-02   -8.848e-03  /
#      CHEB/ 8.476e-04    2.399e-03    9.770e-04    6.853e-05    -1.088e-04  /

# Reaction 5
chebyshev_reaction('bQOOHa (+ M) <=> bQOOHg (+ M)',
                   Tmin=180.0, Tmax=1500.0,
                   Pmin=(0.01, 'atm'), Pmax=(98.692, 'atm'),
                   coeffs=[[-1.62200e+01,  2.44700e+00, -3.44100e-01, -5.05800e-02,  2.92500e-03, -3.26400e-03,  3.96900e-03,  2.15200e-04],
                           [ 5.31900e+00,  1.85900e+00,  7.62700e-01, -6.01300e-02, -4.98100e-02,  7.78700e-03, -1.21300e-04, -4.15200e-04],
                           [-2.85100e+00, -4.10900e-01,  6.08900e-02,  1.42100e-01,  2.23400e-02, -1.05300e-02, -4.62300e-03,  6.24200e-04],
                           [-1.70900e+00, -6.69400e-01, -1.54700e-01,  5.10800e-02,  2.02900e-02,  6.20900e-04,  6.22800e-04, -1.78800e-04],
                           [-7.48300e-01, -2.48800e-01, -1.16200e-01, -2.17700e-02, -7.55100e-04,  2.82600e-03,  1.82800e-03,  2.45000e-04],
                           [-2.59800e-01,  1.63100e-02, -2.72000e-02, -2.20000e-02, -8.07900e-03, -1.20400e-03,  3.76500e-04,  3.86700e-04],
                           [-9.30600e-02,  1.08200e-01,  2.27600e-02, -2.04400e-03, -3.16300e-03, -2.70500e-03, -1.13700e-03,  2.02500e-04],
                           [-5.00500e-02,  6.12400e-02,  3.27700e-02,  1.27600e-02,  2.43700e-03, -1.48100e-03, -9.73700e-04, -2.32100e-04],
                           [-4.93800e-02,  5.86800e-03,  1.26700e-02,  1.10400e-02,  5.85400e-03,  9.56600e-04, -5.31200e-04, -3.60300e-04],
                           [-5.00100e-02, -3.09100e-02, -8.07700e-03,  3.10200e-03,  4.34200e-03,  1.93700e-03,  1.37400e-04, -1.29200e-04]])

# Reaction 6
chebyshev_reaction('bQOOH[O] (+ M) <=> bQOOHg (+ M)',
                   Tmin=180.0, Tmax=1500.0,
                   Pmin=(0.01, 'atm'), Pmax=(98.692, 'atm'),
                   coeffs=[[-6.73200e+00,  9.16300e-01, -1.77400e-01, -4.07800e-02, -9.05900e-04,  4.13400e-03,  4.32400e-04, -3.14500e-04],
                           [-8.81800e-01,  2.30900e+00,  3.03900e-01, -5.02200e-02, -1.98200e-02,  1.57300e-03,  2.52200e-03, -9.20000e-05],
                           [-3.20800e+00, -2.11700e-01,  8.49700e-02,  1.00900e-01,  8.38600e-03, -9.08200e-03, -2.37300e-03,  7.53600e-04],
                           [-1.76800e+00, -5.64100e-01, -1.57800e-01,  3.81000e-02,  2.78400e-02,  1.92400e-03, -2.90700e-03, -7.27500e-04],
                           [-7.25700e-01, -1.76600e-01, -1.22700e-01, -3.16600e-02,  2.11500e-03,  6.05800e-03,  1.66200e-03, -3.91400e-04],
                           [-2.45400e-01,  6.99400e-02,  2.44200e-03, -2.60600e-02, -1.41700e-02, -8.24000e-04,  1.97600e-03,  7.15400e-04],
                           [-9.79500e-02,  1.03100e-01,  5.30900e-02,  7.51400e-03, -7.43000e-03, -4.31400e-03, -6.38500e-04,  4.56300e-04],
                           [-7.24900e-02,  3.22900e-02,  4.01600e-02,  1.79900e-02,  4.94300e-03, -1.66800e-03, -1.61600e-03, -3.29800e-04],
                           [-6.84300e-02, -2.23700e-02,  3.61600e-03,  9.87000e-03,  7.62000e-03,  1.85600e-03, -4.80000e-04, -4.99700e-04],
                           [-5.33000e-02, -3.81200e-02, -1.67200e-02, -1.33800e-03,  2.93000e-03,  2.31300e-03,  6.84400e-04, -6.40000e-05]])

# Reaction 7
chebyshev_reaction('O2 + bR (+ M) <=> bQOOHg (+ M)',
                   Tmin=180.0, Tmax=1500.0,
                   Pmin=(0.01, 'atm'), Pmax=(98.692, 'atm'),
                   coeffs=[[ 1.89900e+00,  1.30100e+00, -1.62900e-01, -1.82800e-01,  1.56500e-02,  2.85100e-02, -4.98200e-03, -5.55400e-03],
                           [-1.41500e+00,  1.06000e+00,  3.63100e-01,  1.25200e-01, -6.57200e-02, -3.12800e-02,  1.29500e-02,  6.74400e-03],
                           [-1.37800e+00,  3.07500e-02, -2.65700e-04,  1.02300e-01,  2.83800e-02, -1.18000e-02, -8.37200e-03,  1.16700e-03],
                           [-9.29400e-01, -1.23200e-01, -1.03700e-01,  3.69200e-03,  2.64300e-02,  8.93300e-03, -2.79100e-03, -2.53700e-03],
                           [-4.67500e-01, -3.00300e-02, -5.75100e-02, -3.54100e-02,  3.53400e-04,  7.84000e-03,  2.66000e-03, -7.54800e-04],
                           [-1.97200e-01,  4.55300e-02,  8.28100e-03, -2.40600e-02, -1.17900e-02,  3.18300e-04,  2.54500e-03,  7.59000e-04],
                           [-7.20100e-02,  5.17700e-02,  3.57100e-02, -3.93800e-04, -7.97100e-03, -3.70900e-03,  1.99700e-04,  8.43300e-04],
                           [-4.11400e-02,  2.40600e-02,  3.14100e-02,  1.12200e-02, -7.76900e-04, -2.82200e-03, -9.31500e-04,  1.73400e-04],
                           [-3.22300e-02, -9.24300e-03,  1.34600e-02,  1.08700e-02,  3.26900e-03, -6.32700e-04, -8.42400e-04, -1.91900e-04],
                           [-2.60900e-02, -2.73400e-02, -8.65400e-04,  5.21500e-03,  3.05500e-03,  6.62000e-04, -2.62500e-04, -1.96700e-04]])
#  bRO2(+M) <=> bQOOHa(+M)                             1.000e+00 0.000     0.000
#      TCHEB/ 180.000   1500.000 /
#      PCHEB/ 0.010     98.692   /
#      CHEB/ 10 8/
#      CHEB/ -1.112e+01   2.413e+00    -4.331e-01   5.493e-02    1.426e-02   /
#      CHEB/ -1.523e-02   3.851e-03    1.270e-03    9.847e+00    7.970e-01   /
#      CHEB/ 5.683e-01    -1.271e-01   -2.611e-02   1.892e-02    -3.097e-03  /
#      CHEB/ -9.240e-04   -2.276e+00   -3.740e-02   1.650e-01    5.606e-02   /
#      CHEB/ -1.270e-02   -2.198e-03   5.315e-04    -6.122e-04   -1.338e+00  /
#      CHEB/ -2.818e-01   -4.668e-02   5.068e-02    1.405e-02    -4.141e-03  /
#      CHEB/ -1.367e-03   2.260e-04    -6.855e-01   -1.833e-01   -7.044e-02  /
#      CHEB/ 1.164e-02    8.055e-03    -5.070e-04   -5.280e-06   2.712e-04   /
#      CHEB/ -3.347e-01   -2.211e-02   -2.879e-02   -6.524e-03   -1.326e-03  /
#      CHEB/ -4.959e-05   7.589e-04    2.914e-04    -1.655e-01   4.672e-02   /
#      CHEB/ 3.877e-03    -4.850e-03   -2.245e-03   -3.648e-04   7.059e-05   /
#      CHEB/ 6.165e-05    -1.086e-01   3.468e-02    1.019e-02    1.626e-03   /
#      CHEB/ 1.182e-03    -1.072e-04   -5.652e-04   -1.458e-04   -6.722e-02  /
#      CHEB/ -5.728e-03   4.342e-03    3.919e-03    2.829e-03    5.176e-04   /
#      CHEB/ -4.403e-04   -1.817e-04   -4.031e-02   -3.146e-02   -2.389e-03  /
#      CHEB/ 1.468e-03    1.758e-03    9.848e-04    -1.365e-05   -1.067e-04  /
#  bQOOHg(+M) <=> bQOOHa(+M)                           1.000e+00 0.000     0.000
#      TCHEB/ 180.000   1500.000 /
#      PCHEB/ 0.010     98.692   /
#      CHEB/ 10 8/
#      CHEB/ -9.107e+00   2.447e+00    -3.441e-01   -5.058e-02   2.925e-03   /
#      CHEB/ -3.264e-03   3.969e-03    2.152e-04    -5.023e-01   1.859e+00   /
#      CHEB/ 7.627e-01    -6.013e-02   -4.981e-02   7.787e-03    -1.213e-04  /
#      CHEB/ -4.152e-04   -2.942e+00   -4.109e-01   6.089e-02    1.421e-01   /
#      CHEB/ 2.234e-02    -1.053e-02   -4.623e-03   6.242e-04    -1.745e+00  /
#      CHEB/ -6.694e-01   -1.547e-01   5.108e-02    2.029e-02    6.209e-04   /
#      CHEB/ 6.228e-04    -1.788e-04   -7.588e-01   -2.488e-01   -1.162e-01  /
#      CHEB/ -2.177e-02   -7.551e-04   2.826e-03    1.828e-03    2.450e-04   /
#      CHEB/ -2.625e-01   1.631e-02    -2.720e-02   -2.200e-02   -8.079e-03  /
#      CHEB/ -1.204e-03   3.765e-04    3.867e-04    -9.383e-02   1.082e-01   /
#      CHEB/ 2.276e-02    -2.044e-03   -3.163e-03   -2.705e-03   -1.137e-03  /
#      CHEB/ 2.025e-04    -5.032e-02   6.124e-02    3.277e-02    1.276e-02   /
#      CHEB/ 2.437e-03    -1.481e-03   -9.737e-04   -2.321e-04   -4.940e-02  /
#      CHEB/ 5.868e-03    1.267e-02    1.104e-02    5.854e-03    9.566e-04   /
#      CHEB/ -5.312e-04   -3.603e-04   -4.994e-02   -3.091e-02   -8.077e-03  /
#      CHEB/ 3.102e-03    4.342e-03    1.937e-03    1.374e-04    -1.292e-04  /

# Reaction 8
chebyshev_reaction('bQOOH[O] (+ M) <=> bQOOHa (+ M)',
                   Tmin=180.0, Tmax=1500.0,
                   Pmin=(0.01, 'atm'), Pmax=(98.692, 'atm'),
                   coeffs=[[-5.87800e+00,  2.32500e+00, -5.12700e-01, -3.87600e-02,  1.38100e-02,  4.50300e-04,  2.92200e-03, -1.05700e-03],
                           [-1.45300e+00,  1.48300e+00,  6.77900e-01, -7.75100e-02, -3.77900e-02,  6.69400e-03, -6.55200e-04,  9.33200e-04],
                           [-3.13200e+00, -6.36500e-01,  1.31300e-01,  1.28300e-01,  8.07400e-03, -9.99700e-03, -2.86400e-03,  3.59700e-04],
                           [-1.70300e+00, -6.49800e-01, -1.41700e-01,  4.11200e-02,  2.26800e-02,  1.17100e-03, -8.49600e-04, -5.30400e-04],
                           [-7.05100e-01, -2.01100e-01, -1.15700e-01, -2.56000e-02,  2.04400e-03,  3.77000e-03,  1.50500e-03, -2.70400e-05],
                           [-2.53400e-01,  6.81700e-02, -1.66000e-02, -2.13800e-02, -8.55900e-03, -9.65300e-04,  7.46900e-04,  4.55900e-04],
                           [-9.99100e-02,  1.11900e-01,  3.48600e-02,  4.55000e-03, -3.73200e-03, -3.17100e-03, -8.63200e-04,  2.41900e-04],
                           [-7.44700e-02,  5.08500e-02,  2.80900e-02,  1.57400e-02,  4.43600e-03, -1.15900e-03, -1.25600e-03, -2.38100e-04],
                           [-6.20200e-02, -1.17800e-02,  3.33200e-03,  8.46200e-03,  6.20800e-03,  1.72200e-03, -3.27800e-04, -4.07400e-04],
                           [-4.83600e-02, -4.11200e-02, -1.11100e-02, -1.80700e-03,  2.45300e-03,  2.17500e-03,  5.36600e-04, -1.04700e-04]])

# Reaction 9
chebyshev_reaction('O2 + bR (+ M) <=> bQOOHa (+ M)',
                   Tmin=180.0, Tmax=1500.0,
                   Pmin=(0.01, 'atm'), Pmax=(98.692, 'atm'),
                   coeffs=[[ 1.94900e+00,  2.80200e+00, -2.06800e-01, -1.86800e-01, -5.09300e-02,  2.05800e-02,  1.76400e-02, -2.88500e-03],
                           [-1.29800e+00, -1.48900e-01,  4.52000e-01,  1.60100e-01,  2.65600e-02, -3.34400e-02, -2.10900e-02,  6.03200e-03],
                           [-1.27800e+00, -2.03400e-01, -1.06500e-02,  6.56300e-02,  1.66700e-02,  8.34100e-03,  5.06400e-04, -4.06700e-03],
                           [-8.80300e-01, -9.72400e-02, -8.58500e-02, -6.38300e-03,  3.92300e-03,  4.69800e-03,  4.03600e-03,  2.24300e-04],
                           [-4.69700e-01,  8.57800e-03, -3.69800e-02, -2.02000e-02, -5.51700e-03, -1.16800e-03,  1.30500e-03,  1.37500e-03],
                           [-2.11800e-01,  5.92200e-02,  9.45700e-03, -8.32000e-03, -5.60700e-03, -2.94700e-03, -7.15200e-04,  5.12700e-04],
                           [-8.83800e-02,  5.44900e-02,  3.03000e-02,  5.32200e-03, -1.93500e-03, -2.39100e-03, -1.11700e-03, -1.02300e-04],
                           [-5.07500e-02,  1.95200e-02,  2.48500e-02,  1.15100e-02,  2.50100e-03, -8.12400e-04, -9.16200e-04, -3.49600e-04],
                           [-3.64600e-02, -1.47100e-02,  1.16800e-02,  9.63800e-03,  3.77100e-03,  5.34400e-04, -3.19700e-04, -2.55700e-04],
                           [-3.06300e-02, -3.52300e-02, -3.29200e-03,  3.41500e-03,  3.42500e-03,  1.58200e-03, -7.61200e-06, -2.12000e-04]])
#  bRO2(+M) <=> bQOOH[O](+M)                           1.000e+00 0.000     0.000
#      TCHEB/ 180.000   1500.000 /
#      PCHEB/ 0.010     98.692   /
#      CHEB/ 10 8/
#      CHEB/ -9.402e+00   1.048e+00    -1.221e-01   5.429e-03    2.473e-03   /
#      CHEB/ 1.385e-04    -2.247e-05   -1.097e-05   9.665e+00    1.000e+00   /
#      CHEB/ 4.764e-02    -2.643e-02   1.219e-03    2.324e-03    -2.729e-05  /
#      CHEB/ -2.374e-04   -2.700e+00   1.010e-02    7.950e-02    1.775e-02   /
#      CHEB/ -3.763e-03   -9.132e-04   4.212e-04    5.765e-05    -1.435e+00  /
#      CHEB/ -2.008e-01   -2.141e-02   1.929e-02    6.040e-03    -1.137e-03  /
#      CHEB/ -7.145e-04   9.450e-05    -6.640e-01   -8.233e-02   -3.764e-02  /
#      CHEB/ -4.779e-03   4.003e-03    1.578e-03    -2.753e-04   -2.339e-04  /
#      CHEB/ -3.070e-01   1.419e-02    1.373e-03    -6.498e-03   -2.891e-03  /
#      CHEB/ 4.251e-04    5.853e-04    2.974e-05    -1.623e-01   2.002e-02   /
#      CHEB/ 2.175e-02    5.727e-03    -2.111e-03   -1.508e-03   3.191e-05   /
#      CHEB/ 2.487e-04    -1.058e-01   -1.255e-02   1.139e-02    9.922e-03   /
#      CHEB/ 2.378e-03    -7.152e-04   -5.637e-04   -2.630e-05   -7.150e-02  /
#      CHEB/ -3.429e-02   -5.401e-03   3.880e-03    3.268e-03    9.460e-04   /
#      CHEB/ -1.603e-04   -2.158e-04   -4.032e-02   -3.224e-02   -1.168e-02  /
#      CHEB/ -2.561e-03   7.915e-04    1.012e-03    3.907e-04    -2.568e-05  /
#  bQOOHg(+M) <=> bQOOH[O](+M)                         1.000e+00 0.000     0.000
#      TCHEB/ 180.000   1500.000 /
#      PCHEB/ 0.010     98.692   /
#      CHEB/ 10 8/
#      CHEB/ -7.051e+00   9.163e-01    -1.774e-01   -4.078e-02   -9.059e-04  /
#      CHEB/ 4.134e-03    4.324e-04    -3.145e-04   -1.306e+00   2.309e+00   /
#      CHEB/ 3.039e-01    -5.022e-02   -1.982e-02   1.573e-03    2.522e-03   /
#      CHEB/ -9.200e-05   -3.359e+00   -2.117e-01   8.497e-02    1.009e-01   /
#      CHEB/ 8.386e-03    -9.082e-03   -2.373e-03   7.536e-04    -1.826e+00  /