units(length='cm', time='s', quantity='mol', act_energy='kcal/mol')

ideal_gas(name='gas',
          elements="H D T C Ci O Oi N Ne Ar He Si S F Cl Br I X",
          species="""aOOHbalkene      OH               ibutanal
                     aR               performic_acid   disub_c4ether
                     aQOOHb           H                aadduct
                     trisub_epoxy     ibutenol         aQOOH[O]
                     ipropyl          aRO2             O2
                     formic_acid      propene          aQOOHg
                     ibut_peroxyacid  HO2              CH3""",
          reactions='all',
          initial_state=state(temperature=300.0, pressure=OneAtm))

#-------------------------------------------------------------------------------
# Element data
#-------------------------------------------------------------------------------

element(symbol='Ci', atomic_mass=13.003)
element(symbol='D', atomic_mass=2.014)
element(symbol='Oi', atomic_mass=18.0)
element(symbol='T', atomic_mass=3.016)
element(symbol='X', atomic_mass=195.083)
#-------------------------------------------------------------------------------
# Species data
#-------------------------------------------------------------------------------

species(name='aOOHbalkene',
        atoms='C:3 H:6 O:3',
        thermo=(NASA([10.00, 497.41],
                     [ 3.76691735E+00,  1.51417956E-02,  1.85499431E-04,
                      -4.61303214E-07,  3.27678941E-10, -3.10403186E+04,
                       1.09903968E+01]),
                NASA([497.41, 3000.00],
                     [ 6.20882781E+00,  4.08866173E-02, -2.89934946E-05,
                       9.60428979E-09, -1.19355432E-12, -3.18446479E+04,
                      -4.72842811E+00])))

species(name='OH',
        atoms='H:1 O:1',
        thermo=(NASA([10.00, 984.14],
                     [ 3.49686242E+00,  1.83973160E-04, -9.97634499E-07,
                       1.56942783E-09, -6.10128175E-13,  3.41673934E+03,
                       1.48093120E+00]),
                NASA([984.14, 3000.00],
                     [ 3.45221464E+00, -2.95124034E-04,  7.39418622E-07,
                      -2.89309866E-10,  3.53041498E-14,  3.45751599E+03,
                       1.85813897E+00])))

species(name='ibutanal',
        atoms='C:4 H:8 O:1',
        thermo=(NASA([10.00, 683.88],
                     [ 3.57157346E+00,  3.36936906E-02, -1.78475021E-05,
                       1.31946716E-08, -7.58008388E-12, -2.67341492E+04,
                       1.05595084E+01]),
                NASA([683.88, 3000.00],
                     [ 1.29043622E+00,  4.14804229E-02, -2.27411206E-05,
                       6.08619500E-09, -6.38995128E-13, -2.62922300E+04,
                       2.16477430E+01])))

species(name='aR',
        atoms='C:4 H:9 O:1',
        thermo=(NASA([10.00, 455.22],
                     [ 3.59625500E+00,  3.38947981E-02,  7.37257079E-06,
                      -3.99275335E-08,  2.49019944E-11, -1.33390827E+04,
                       1.18269265E+01]),
                NASA([455.22, 3000.00],
                     [ 2.49586309E+00,  4.35639890E-02, -2.44887770E-05,
                       6.73363769E-09, -7.23862433E-13, -1.32388996E+04,
                       1.62696907E+01])))

species(name='performic_acid',
        atoms='C:1 H:2 O:3',
        thermo=(NASA([10.00, 590.95],
                     [ 3.92633851E+00,  4.24517168E-03,  6.71106764E-05,
                      -1.36545385E-07,  8.03337864E-11, -3.63028176E+04,
                       8.06485813E+00]),
                NASA([590.95, 3000.00],
                     [ 4.39992934E+00,  1.85411415E-02, -1.36005501E-05,
                       4.62292431E-09, -5.88463603E-13, -3.66643888E+04,
                       3.44353230E+00])))

species(name='disub_c4ether',
        atoms='C:4 H:8 O:2',
        thermo=(NASA([10.00, 413.50],
                     [ 3.78241323E+00,  1.89501763E-02,  8.65302396E-05,
                      -1.80580575E-07,  1.13656264E-10, -3.82007278E+04,
                       1.09982450E+01]),
                NASA([413.50, 3000.00],
                     [ 4.29420885E-01,  5.13851903E-02, -3.11292293E-05,
                       9.11498284E-09, -1.03192718E-12, -3.79234335E+04,
                       2.42134976E+01])))

species(name='aQOOHb',
        atoms='C:4 H:9 O:3',
        thermo=(NASA([10.00, 412.78],
                     [ 3.15498836E+00,  8.55068303E-02, -2.35307993E-04,
                       4.71983261E-07, -3.62709267E-10, -2.91432553E+04,
                       1.52522123E+01]),
                NASA([412.78, 3000.00],
                     [ 4.18099845E+00,  5.26168288E-02, -3.23998410E-05,
                       9.59389339E-09, -1.09464519E-12, -2.90324604E+04,
                       1.35782328E+01])))

species(name='H',
        atoms='H:1',
        thermo=(NASA([10.00, 794.01],
                     [ 2.50000000E+00,  1.99051163E-15, -1.19089508E-17,
                       2.10805655E-20, -1.11017699E-23,  2.54725594E+04,
                      -4.61279342E-01]),
                NASA([794.01, 3000.00],
                     [ 2.50000000E+00,  1.52667235E-14, -1.58445285E-17,
                       6.63088600E-21, -9.62111674E-25,  2.54725594E+04,
                      -4.61279342E-01])))

species(name='aadduct',
        atoms='C:4 H:9 O:3',
        thermo=(NASA([10.00, 449.84],
                     [ 3.06901904E+00,  9.20724491E-02, -2.68085092E-04,
                       5.15249897E-07, -3.68046586E-10, -3.34787082E+04,
                       1.46591735E+01]),
                NASA([449.84, 3000.00],
                     [ 4.11210745E+00,  5.16955724E-02, -2.97401041E-05,
                       8.32758939E-09, -9.08861448E-13, -3.32578673E+04,
                       1.39578825E+01])))

species(name='trisub_epoxy',
        atoms='C:4 H:8 O:2',
        thermo=(NASA([10.00, 209.19],
                     [ 3.75295042E+00,  2.37546930E-02,  1.26610110E-04,
                      -4.78364365E-07,  5.79468168E-10, -4.38114567E+04,
                       1.12739684E+01]),
                NASA([209.19, 3000.00],
                     [ 2.64185254E+00,  4.50006531E-02, -2.57361066E-05,
                       7.15266054E-09, -7.72980731E-13, -4.37649711E+04,
                       1.48960343E+01])))

species(name='ibutenol',
        atoms='C:4 H:8 O:1',
        thermo=(NASA([10.00, 135.97],
                     [ 3.95714996E+00,  5.72646980E-03,  4.63611760E-04,
                      -3.04137514E-06,  6.85019471E-09, -2.19419159E+04,
                       8.21931848E+00]),
                NASA([135.97, 3000.00],
                     [ 3.32467612E+00,  3.69033556E-02, -1.89960416E-05,
                       4.73417677E-09, -4.59705291E-13, -2.19363373E+04,
                       9.58133237E+00])))

species(name='aQOOH[O]',
        atoms='C:4 H:9 O:3',
        thermo=(NASA([10.00, 488.36],
                     [ 3.54559533E+00,  3.89536133E-02,  8.47689703E-05,
                      -2.45147486E-07,  1.76157259E-10, -2.39887711E+04,
                       1.34685910E+01]),
                NASA([488.36, 3000.00],
                     [ 3.94214913E+00,  5.71928314E-02, -3.72516212E-05,
                       1.15209013E-08, -1.35808341E-12, -2.42837320E+04,
                       9.21628964E+00])))

species(name='ipropyl',
        atoms='C:3 H:7',
        thermo=(NASA([10.00, 421.76],
                     [ 3.73943775E+00,  3.10070157E-02, -1.51196908E-04,
                       4.35367329E-07, -3.85565052E-10,  9.49213457E+03,
                       7.79448918E+00]),
                NASA([421.76, 3000.00],
                     [-4.74526725E-01,  3.20862468E-02, -1.67340747E-05,
                       4.21365136E-09, -4.13155573E-13,  1.01934458E+04,
                       2.85865912E+01])))

species(name='aRO2',
        atoms='C:4 H:9 O:3',
        thermo=(NASA([10.00, 670.36],
                     [ 3.45405325E+00,  4.74751311E-02,  9.77507759E-06,
                      -6.31019603E-08,  3.75500067E-11, -3.42404726E+04,
                       1.39284976E+01]),
                NASA([670.36, 3000.00],
                     [ 5.04137652E+00,  5.19952978E-02, -3.16472789E-05,
                       9.22798587E-09, -1.03598915E-12, -3.47676651E+04,
                       4.56056770E+00])))

species(name='O2',
        atoms='O:2',
        thermo=(NASA([10.00, 605.96],
                     [ 3.50743498E+00, -4.43860349E-04,  1.45938058E-06,
                       1.61509333E-09, -2.32050052E-12, -9.24756224E+02,
                       4.72183634E+00]),
                NASA([605.96, 3000.00],
                     [ 2.87462882E+00,  2.17840991E-03, -1.18262921E-06,
                       2.86910493E-10, -2.53297146E-14, -8.19517838E+02,
                       7.69331810E+00])))

species(name='formic_acid',
        atoms='C:1 H:2 O:2',
        thermo=(NASA([10.00, 741.38],
                     [ 4.06855785E+00, -4.74562133E-03,  4.71797900E-05,
                      -6.07490052E-08,  2.51286794E-11, -4.66880837E+04,
                       6.53681035E+00]),
                NASA([741.38, 3000.00],
                     [ 1.13645847E+00,  1.74953124E-02, -1.08112403E-05,
                       3.08075326E-09, -3.34892658E-13, -4.64297918E+04,
                       1.86149484E+01])))

species(name='propene',
        atoms='C:3 H:6',
        thermo=(NASA([10.00, 519.53],
                     [ 3.98723879E+00,  4.72040503E-04,  6.51776229E-05,
                      -9.89891002E-08,  4.91141123E-11,  3.15337415E+03,
                       6.98071210E+00]),
                NASA([519.53, 3000.00],
                     [ 3.79893331E-01,  2.82457690E-02, -1.50108430E-05,
                       3.90894069E-09, -4.00521928E-13,  3.52820150E+03,
                       2.20218922E+01])))

species(name='aQOOHg',
        atoms='C:4 H:9 O:3',
        thermo=(NASA([10.00, 455.48],
                     [ 3.62522127E+00,  2.83222320E-02,  2.08527447E-04,
                      -5.67427418E-07,  4.35169138E-10, -2.33221545E+04,
                       1.26617758E+01]),
                NASA([455.48, 3000.00],
                     [ 5.13914202E+00,  5.96270859E-02, -4.14435328E-05,
                       1.34202375E-08, -1.63474553E-12, -2.39227108E+04,
                       1.46991116E+00])))

species(name='ibut_peroxyacid',
        atoms='C:4 H:8 O:3',
        thermo=(NASA([10.00, 1386.21],
                     [ 3.50995385E+00,  4.78670384E-02, -2.40781384E-05,
                       3.71046938E-09,  3.85442115E-13, -4.71242017E+04,
                       1.22017268E+01]),
                NASA([1386.21, 3000.00],
                     [ 1.24543146E+01,  3.02396862E-02, -1.38577031E-05,
                       3.05328904E-09, -2.63982457E-13, -5.03900850E+04,
                      -3.67061828E+01])))

species(name='HO2',
        atoms='H:1 O:2',
        thermo=(NASA([10.00, 891.11],
                     [ 4.02887004E+00, -1.75769289E-03,  1.08726004E-05,
                      -1.13812972E-08,  3.90113097E-12,  4.95165001E+02,
                       4.69302008E+00]),
                NASA([891.11, 3000.00],
                     [ 3.06571044E+00,  4.28505005E-03, -2.19325920E-06,
                       5.58882699E-10, -5.61246669E-14,  5.98557610E+02,
                       8.84564156E+00])))

species(name='CH3',
        atoms='C:1 H:3',
        thermo=(NASA([10.00, 616.77],
                     [ 3.98929952E+00,  5.45150461E-04,  9.01320092E-06,
                      -1.08320497E-08,  4.38985879E-12,  1.65859883E+04,
                       2.22446886E-01]),
                NASA([616.77, 3000.00],
                     [ 3.35928237E+00,  4.63117126E-03, -9.24365433E-07,
                      -9.02514624E-11,  3.56905106E-14,  1.66637014E+04,
                       2.95743732E+00])))

#-------------------------------------------------------------------------------
# Reaction data
#-------------------------------------------------------------------------------

# Reaction 1
chebyshev_reaction('aQOOH[O] (+ M) <=> aQOOHb (+ M)',
                   Tmin=180.0, Tmax=1500.0,
                   Pmin=(0.01, 'atm'), Pmax=(98.692, 'atm'),
                   coeffs=[[-1.69700e+01,  5.90600e+00,  1.07800e-01,  3.77100e-01,  3.38200e-02, -2.17700e-02, -4.63800e-03, -5.84300e-03],
                           [-3.63300e+00, -3.72000e-01,  5.56800e-01, -1.37000e-01, -2.16300e-02, -8.49000e-03, -7.01100e-03,  2.44800e-03],
                           [-3.07000e+00,  1.15800e-01,  1.68000e-02, -6.71700e-02, -2.15500e-02,  1.14100e-03,  4.05700e-03,  5.25900e-03],
                           [-1.29000e+00,  6.12000e-02,  6.09400e-02, -9.73800e-03, -1.55000e-02, -4.30300e-03, -1.01400e-03, -2.05000e-04],
                           [-5.37300e-01, -9.45900e-02,  1.65900e-02,  7.49600e-03, -9.76100e-03, -3.94100e-03, -6.05900e-04, -2.84700e-04],
                           [-2.33500e-01, -1.31000e-01, -3.01500e-02,  1.21800e-03, -3.08400e-03, -1.87700e-03,  1.21100e-03,  5.99400e-04],
                           [-9.67100e-02, -7.20600e-02, -4.71700e-02, -1.24200e-02,  3.85400e-03,  6.12600e-04,  7.08600e-05,  8.10600e-04],
                           [ 6.53200e-02, -9.57600e-02, -3.03400e-02, -3.43800e-03,  4.15900e-04,  1.22500e-03,  1.07800e-03,  4.61400e-04],
                           [ 3.40400e-02, -2.70400e-02, -1.35300e-02, -3.68700e-03, -4.64800e-04,  5.35700e-04,  5.96400e-04,  1.65200e-04],
                           [ 8.27800e-03,  3.47000e-03, -3.74600e-03, -9.44000e-04, -1.08000e-03,  1.30700e-03,  5.34200e-04, -3.52800e-04]])

# Reaction 2
chebyshev_reaction('aQOOHg (+ M) <=> aQOOHb (+ M)',
                   Tmin=180.0, Tmax=1500.0,
                   Pmin=(0.01, 'atm'), Pmax=(98.692, 'atm'),
                   coeffs=[[-1.83000e+01,  5.76800e+00,  1.25900e-01,  3.68000e-01,  3.67600e-02, -1.67600e-02, -2.68200e-03, -5.10500e-03],
                           [-5.30700e+00, -4.66900e-01,  5.60900e-01, -8.45200e-02, -9.33100e-03, -5.37000e-03, -4.87200e-03,  3.04500e-03],
                           [-3.21500e+00, -8.17100e-02, -6.59000e-02, -7.69100e-02, -2.62700e-02, -6.23300e-03,  2.03800e-04,  2.73500e-03],
                           [-1.21500e+00, -4.83400e-03,  2.47200e-02, -2.24600e-02, -2.08700e-02, -8.80000e-03, -2.84100e-03, -2.08700e-04],
                           [-4.45400e-01, -1.16000e-01,  1.32500e-02,  1.01100e-02, -3.64000e-03, -8.34400e-04,  3.67200e-05,  1.18000e-04],
                           [-1.79200e-01, -1.52200e-01, -3.83100e-02,  8.63300e-04,  1.44800e-03,  2.15400e-03,  2.64300e-03,  9.61700e-04],
                           [-6.13400e-02, -8.38100e-02, -5.91600e-02, -1.08200e-02,  3.74000e-03,  2.27200e-03,  1.11400e-03,  8.47300e-04],
                           [ 5.59300e-02, -8.70400e-02, -2.91300e-02, -8.07400e-03,  9.01600e-04,  4.95000e-04,  9.99300e-04,  5.08200e-04],
                           [ 1.60500e-02, -2.86800e-02, -1.71700e-02, -3.05800e-03, -1.87000e-03,  5.00300e-04,  5.07200e-04,  1.07000e-04],
                           [-2.26900e-02,  8.20700e-03, -3.14300e-03, -7.22400e-03, -4.73300e-04,  3.84500e-05, -3.60600e-05, -5.70000e-05]])

# Reaction 3
chebyshev_reaction('aRO2 (+ M) <=> aQOOHb (+ M)',
                   Tmin=180.0, Tmax=1500.0,
                   Pmin=(0.01, 'atm'), Pmax=(98.692, 'atm'),
                   coeffs=[[-1.80600e+01,  4.22800e+00, -8.53000e-02,  1.53700e-01,  2.50800e-02, -2.27800e-02, -3.82000e-04, -2.84700e-04],
                           [ 2.88400e+00,  4.04400e-03,  9.62000e-01,  7.27300e-02, -7.47900e-03,  6.21600e-03, -9.08300e-03, -2.17900e-03],
                           [-2.56700e+00,  2.77500e-01,  6.35800e-02,  1.90000e-02, -1.23100e-02, -7.66300e-03, -3.23400e-03, -2.15000e-04],
                           [-1.27300e+00,  1.69700e-02, -4.43400e-02, -1.28300e-02, -1.30100e-02, -6.31100e-03, -1.01500e-03,  1.04700e-04],
                           [-6.22300e-01, -1.08800e-01, -6.22800e-02, -1.27400e-02, -8.42500e-03, -1.64400e-03,  6.89200e-04,  5.79100e-04],
                           [-3.15800e-01, -1.01100e-01, -6.62200e-02, -1.13600e-02, -3.68500e-03, -3.65500e-04,  1.68600e-03,  1.04700e-03],
                           [-1.47400e-01, -2.31900e-02, -5.44400e-02, -1.39600e-02, -6.69400e-04,  1.48800e-03,  1.29800e-03,  8.54500e-04],
                           [ 2.55200e-02, -4.51800e-02, -2.86400e-02, -6.41800e-03,  3.52700e-04,  3.41800e-04,  1.24500e-03,  7.61100e-04],
                           [ 1.40700e-02,  8.17900e-03, -9.64400e-03, -5.89700e-04, -1.94000e-03,  2.70900e-04,  7.81000e-04,  3.04100e-04],
                           [-6.75800e-03,  2.96700e-02,  3.25800e-03, -3.39900e-03, -5.42200e-04, -1.29700e-04,  1.89700e-04,  1.02100e-05]])

# Reaction 4
chebyshev_reaction('aadduct (+ M) <=> aQOOHb (+ M)',
                   Tmin=180.0, Tmax=1500.0,
                   Pmin=(0.01, 'atm'), Pmax=(98.692, 'atm'),
                   coeffs=[[-2.23500e+01,  2.74200e+00,  2.30200e-02,  1.28300e-01,  1.90100e-02, -2.12400e-02, -1.39100e-03,  5.63300e-04],
                           [ 1.72800e+00, -3.77700e-01,  9.15500e-01,  1.20900e-01,  2.05400e-02, -1.48700e-03, -1.72200e-02, -5.84500e-04],
                           [-3.09300e+00,  1.39600e-01,  1.25700e-01,  5.27600e-02, -1.20500e-02, -1.92000e-02, -6.69600e-03,  2.79000e-03],
                           [-1.57900e+00, -1.61000e-02, -5.91200e-04, -7.21200e-03, -1.92700e-02, -1.22300e-02,  1.41100e-04,  2.89800e-03],
                           [-8.00000e-01, -1.33300e-01, -4.56800e-02, -1.47700e-02, -1.11900e-02, -2.37400e-03,  2.36500e-03,  1.53500e-03],
                           [-4.04300e-01, -1.13400e-01, -5.60000e-02, -1.41000e-02, -3.70300e-03,  1.18900e-03,  2.33600e-03,  6.95200e-04],
                           [-1.90500e-01, -2.17200e-02, -5.04400e-02, -1.61600e-02,  1.30500e-03,  2.80200e-03,  9.58200e-04,  3.00100e-04],
                           [ 2.06700e-04, -3.85500e-02, -2.07100e-02, -8.82700e-03, -6.56100e-04,  1.22900e-03,  1.59000e-03,  3.32700e-04],
                           [-7.95000e-03,  1.87700e-02, -5.09500e-03, -3.35400e-03, -2.73600e-03,  6.96500e-04,  1.13700e-03,  2.86100e-04],
                           [-1.63700e-02,  3.49800e-02,  4.19100e-03, -5.86400e-03, -4.16400e-04,  3.07400e-04,  2.93200e-04,  8.56300e-05]])

# Reaction 5
chebyshev_reaction('O2 + aR (+ M) <=> aQOOHb (+ M)',
                   Tmin=180.0, Tmax=1500.0,
                   Pmin=(0.01, 'atm'), Pmax=(98.692, 'atm'),
                   coeffs=[[-1.46500e+01,  8.33000e+00, -5.82100e-01,  1.89700e-01,  1.98600e-01, -3.55100e-03, -2.00600e-02,  2.60700e-03],
                           [-9.66100e-01, -1.90000e+00,  1.67900e+00, -1.89600e-01, -2.18100e-01,  2.26300e-02,  1.79500e-02, -1.00900e-02],
                           [-1.14500e+00, -1.30900e-01,  1.85400e-01,  6.51300e-02, -7.88500e-02, -4.81500e-02,  2.15800e-03,  6.73700e-03],
                           [-5.26100e-01, -3.70500e-02,  2.24400e-02,  8.98600e-02, -9.82300e-03, -2.17100e-02, -4.93800e-03,  2.43200e-03],
                           [-2.41400e-01, -1.48800e-01, -3.17700e-02,  4.70000e-02,  1.24700e-02, -2.24300e-03, -2.56700e-03,  8.92600e-04],
                           [-1.24000e-01, -1.41100e-01, -6.73100e-02,  9.63700e-03,  1.22300e-02,  3.22700e-03,  1.09800e-03,  6.71800e-04],
                           [-5.91300e-02, -5.29800e-02, -8.28100e-02, -7.27000e-03,  9.10800e-03,  3.11300e-03,  1.57200e-03,  5.49300e-04],
                           [ 5.74100e-02, -6.69700e-02, -4.78900e-02, -1.04100e-02,  2.88200e-03,  1.26100e-03,  1.38500e-03,  5.09600e-04],
                           [ 2.10000e-02, -7.44600e-03, -2.64900e-02, -4.89700e-03, -2.37300e-03,  5.31300e-04,  5.10200e-04,  1.87600e-04],
                           [-1.04900e-03,  2.13900e-02, -9.21000e-03, -7.95900e-03, -9.16200e-04,  1.40100e-04, -1.26500e-04, -1.03200e-04]])
#  aQOOHb(+M) <=> aQOOH[O](+M)                         1.000e+00 0.000     0.000
#      TCHEB/ 180.000   1500.000 /
#      PCHEB/ 0.010     98.692   /
#      CHEB/ 10 8/
#      CHEB/ -2.543e+01   5.906e+00    1.078e-01    3.771e-01    3.382e-02   /
#      CHEB/ -2.177e-02   -4.638e-03   -5.843e-03   1.661e+00    -3.720e-01  /
#      CHEB/ 5.568e-01    -1.370e-01   -2.163e-02   -8.490e-03   -7.011e-03  /
#      CHEB/ 2.448e-03    -2.993e+00   1.158e-01    1.680e-02    -6.717e-02  /
#      CHEB/ -2.155e-02   1.141e-03    4.057e-03    5.259e-03    -1.244e+00  /
#      CHEB/ 6.120e-02    6.094e-02    -9.738e-03   -1.550e-02   -4.303e-03  /
#      CHEB/ -1.014e-03   -2.050e-04   -5.219e-01   -9.459e-02   1.659e-02   /
#      CHEB/ 7.496e-03    -9.761e-03   -3.941e-03   -6.059e-04   -2.847e-04  /
#      CHEB/ -2.287e-01   -1.310e-01   -3.015e-02   1.218e-03    -3.084e-03  /
#      CHEB/ -1.877e-03   1.211e-03    5.994e-04    -9.490e-02   -7.206e-02  /
#      CHEB/ -4.717e-02   -1.242e-02   3.854e-03    6.126e-04    7.086e-05   /
#      CHEB/ 8.106e-04    6.603e-02    -9.576e-02   -3.034e-02   -3.438e-03  /
#      CHEB/ 4.159e-04    1.225e-03    1.078e-03    4.614e-04    3.423e-02   /
#      CHEB/ -2.704e-02   -1.353e-02   -3.687e-03   -4.648e-04   5.357e-04   /
#      CHEB/ 5.964e-04    1.652e-04    8.285e-03    3.470e-03    -3.746e-03  /
#      CHEB/ -9.440e-04   -1.080e-03   1.307e-03    5.342e-04    -3.528e-04  /

# Reaction 6
chebyshev_reaction('aQOOHg (+ M) <=> aQOOH[O] (+ M)',
                   Tmin=180.0, Tmax=1500.0,
                   Pmin=(0.01, 'atm'), Pmax=(98.692, 'atm'),
                   coeffs=[[-4.65100e+00,  2.74200e+00, -2.01000e-01,  2.42000e-02,  9.23700e-04, -3.17900e-03,  9.94400e-05,  7.26800e-04],
                           [-6.48100e+00,  5.09800e-01,  3.20200e-02,  3.41200e-03,  1.56800e-02,  2.10100e-03, -1.04300e-03, -5.75100e-04],
                           [-3.50500e+00,  1.24900e-02, -1.05100e-01, -3.94800e-02,  4.07500e-03,  2.66300e-03, -2.75100e-05,  3.51800e-04],
                           [-1.53700e+00,  1.88200e-02,  4.23100e-03, -5.72100e-03, -5.00400e-03, -1.07100e-03, -2.50200e-04, -6.75500e-05],
                           [-6.87500e-01, -2.56800e-02,  1.48700e-02,  1.10700e-02,  1.95300e-03,  4.80300e-04,  5.63300e-05, -2.13400e-04],
                           [-3.28500e-01, -7.27000e-02, -1.10000e-02, -2.67600e-04,  1.43800e-03,  9.66200e-04,  4.05000e-04,  2.50300e-04],
                           [-1.32200e-01, -8.55700e-02, -1.26500e-02, -5.84700e-03, -1.51900e-03,  1.49100e-04,  1.41900e-04,  2.74600e-05],
                           [-8.73100e-02,  2.06600e-02, -2.98000e-02, -4.30500e-03, -1.95800e-04, -3.82300e-04, -1.89600e-04, -3.87600e-05],
                           [-7.02400e-03, -1.15700e-02, -3.55700e-03, -5.62500e-03, -1.54300e-03, -2.07500e-04,  2.09400e-04, -4.40600e-06],
                           [-4.86800e-02,  5.24700e-02, -1.08900e-02, -2.20400e-03, -6.35300e-04, -8.06100e-04, -5.39100e-05,  2.07900e-04]])

# Reaction 7
chebyshev_reaction('aRO2 (+ M) <=> aQOOH[O] (+ M)',
                   Tmin=180.0, Tmax=1500.0,
                   Pmin=(0.01, 'atm'), Pmax=(98.692, 'atm'),
                   coeffs=[[-8.59000e+00,  2.54400e+00, -3.52000e-01,  8.31100e-02, -1.77000e-02, -3.99000e-07,  1.41300e-03, -6.21500e-04],
                           [ 5.95900e+00,  8.05300e-01,  7.54800e-02, -4.25100e-02,  3.00800e-02, -5.48600e-03, -2.98500e-04,  6.06200e-04],
                           [-3.44100e+00,  1.08900e-01,  3.79100e-02, -3.35500e-02,  6.07300e-03,  3.13800e-03, -1.71200e-03,  3.42300e-04],
                           [-1.75700e+00, -4.12000e-02,  3.29500e-02, -7.85800e-03, -2.44000e-03,  2.08200e-03, -3.89300e-04, -1.18200e-04],
                           [-8.71100e-01, -8.26300e-02,  6.03100e-03,  6.07500e-03, -1.56100e-03,  1.66700e-04,  3.30600e-04, -7.10900e-05],
                           [-4.16500e-01, -7.50400e-02, -1.62200e-02,  4.08000e-03,  8.30300e-04, -4.70500e-04,  1.56200e-04,  4.71300e-05],
                           [-1.80100e-01, -4.48900e-02, -1.89500e-02, -4.82100e-03,  2.12200e-03,  8.39300e-07, -3.34300e-04,  1.38200e-04],
                           [-4.67700e-02, -1.30700e-02, -1.96000e-02, -3.36500e-03, -1.47900e-03,  8.60000e-04, -7.27300e-05, -1.74900e-04],
                           [ 5.02600e-03,  1.44100e-02, -6.28300e-03, -6.72300e-03, -7.96900e-04, -8.45800e-05,  1.24900e-04,  8.52000e-06],
                           [ 1.28800e-02,  2.08200e-02,  6.37900e-04,  8.68200e-04, -3.71000e-03,  1.66300e-04,  3.65600e-04, -2.45500e-04]])

# Reaction 8
chebyshev_reaction('aadduct (+ M) <=> aQOOH[O] (+ M)',
                   Tmin=180.0, Tmax=1500.0,
                   Pmin=(0.01, 'atm'), Pmax=(98.692, 'atm'),
                   coeffs=[[-1.25500e+01,  8.34200e-01, -3.02000e-01,  8.75600e-02, -1.35900e-02, -7.41900e-04, -1.12700e-04, -1.00200e-04],
                           [ 4.19900e+00,  8.85100e-01,  9.56300e-02, -4.22100e-02,  3.34700e-02, -5.01000e-03, -2.67000e-03,  9.92600e-04],
                           [-3.98200e+00,  1.40100e-01,  5.03400e-02, -3.24400e-02,  5.89100e-03,  4.29000e-03, -2.28400e-03,  1.38600e-04],
                           [-2.11700e+00, -1.61300e-02,  3.46000e-02, -3.46100e-03, -1.92600e-03, -1.48500e-04,  2.79500e-04,  8.71700e-04],
                           [-1.07800e+00, -6.93300e-02,  8.99400e-03,  8.95300e-03, -2.17300e-03, -2.93300e-04,  7.67000e-04,  7.41200e-05],
                           [-5.19900e-01, -6.33600e-02, -1.44000e-02,  4.94000e-03,  1.88800e-03, -1.13500e-03, -3.07700e-05,  4.16300e-04],
                           [-2.26500e-01, -4.05600e-02, -1.45200e-02, -5.58500e-03,  2.23200e-03,  8.78000e-04, -6.18500e-04, -1.98400e-04],
                           [-6.67200e-02, -9.48200e-03, -1.76100e-02, -3.05600e-03, -1.85200e-03,  1.30700e-03,  5.74700e-05, -4.47000e-04],
                           [-6.78600e-03,  1.61500e-02, -5.49700e-03, -6.04500e-03, -8.68200e-04, -3.58000e-04,  3.11100e-04,  9.41900e-05],
                           [ 2.89300e-03,  2.44600e-02, -8.41700e-04,  2.06100e-03, -3.56700e-03, -3.17100e-04,  4.00100e-04, -3.03800e-05]])

# Reaction 9
chebyshev_reaction('O2 + aR (+ M) <=> aQOOH[O] (+ M)',
                   Tmin=180.0, Tmax=1500.0,
                   Pmin=(0.01, 'atm'), Pmax=(98.692, 'atm'),
                   coeffs=[[-6.65900e-01,  4.87100e+00, -7.65400e-01, -1.62400e-01,  1.36600e-01,  5.46300e-03, -2.30000e-02,  3.08600e-03],
                           [-1.89100e+00, -1.22300e+00,  1.09300e+00, -8.27400e-02, -1.94500e-01,  3.36500e-02,  2.99900e-02, -9.99700e-03],
                           [-1.23600e+00, -2.14400e-01,  1.96200e-01,  1.36700e-01, -4.07500e-02, -3.29300e-02,  8.00500e-03,  6.20600e-03],
                           [-7.48000e-01, -1.17000e-01,  1.44000e-03,  1.00200e-01,  1.18100e-02, -1.69300e-02, -3.22200e-03,  2.36900e-03],
                           [-4.09100e-01, -1.26900e-01, -3.73400e-02,  3.45800e-02,  2.33700e-02, -3.31700e-03, -4.20000e-03,  6.19500e-04],
                           [-2.26100e-01, -9.09300e-02, -5.10700e-02,  3.00400e-03,  1.47000e-02,  2.31900e-03, -1.97900e-03, -2.14600e-04],
                           [-1.22400e-01, -4.50200e-02, -5.09100e-02, -5.37500e-03,  4.73300e-03,  2.10000e-03,  2.23100e-04, -4.72700e-04],
                           [-3.39200e-02, -2.26800e-02, -2.42200e-02, -1.60000e-02,  1.66000e-03,  1.31600e-03,  1.40300e-04, -3.48700e-05],
                           [ 4.94700e-03,  1.58100e-03, -3.49600e-03, -1.24700e-02, -2.17700e-03,  8.99800e-04, -1.95300e-04,  2.42200e-04],
                           [ 1.00700e-02,  1.42800e-02,  4.94100e-03, -5.68400e-03, -2.96800e-03, -6.85600e-05,  9.46900e-06,  1.04600e-04]])
#  aQOOHb(+M) <=> aQOOHg(+M)                           1.000e+00 0.000     0.000
#      TCHEB/ 180.000   1500.000 /
#      PCHEB/ 0.010     98.692   /
#      CHEB/ 10 8/
#      CHEB/ -2.785e+01   5.768e+00    1.259e-01    3.680e-01    3.676e-02   /
#      CHEB/ -1.676e-02   -2.682e-03   -5.105e-03   9.983e-01    -4.669e-01  /
#      CHEB/ 5.609e-01    -8.452e-02   -9.331e-03   -5.370e-03   -4.872e-03  /
#      CHEB/ 3.045e-03    -2.992e+00   -8.171e-02   -6.590e-02   -7.691e-02  /
#      CHEB/ -2.627e-02   -6.233e-03   2.038e-04    2.735e-03    -1.121e+00  /
#      CHEB/ -4.834e-03   2.472e-02    -2.246e-02   -2.087e-02   -8.800e-03  /
#      CHEB/ -2.841e-03   -2.087e-04   -4.172e-01   -1.160e-01   1.325e-02   /
#      CHEB/ 1.011e-02    -3.640e-03   -8.344e-04   3.672e-05    1.180e-04   /
#      CHEB/ -1.713e-01   -1.522e-01   -3.831e-02   8.633e-04    1.448e-03   /
#      CHEB/ 2.154e-03    2.643e-03    9.617e-04    -5.883e-02   -8.381e-02  /
#      CHEB/ -5.916e-02   -1.082e-02   3.740e-03    2.272e-03    1.114e-03   /
#      CHEB/ 8.473e-04    5.666e-02    -8.704e-02   -2.913e-02   -8.074e-03  /
#      CHEB/ 9.016e-04    4.950e-04    9.993e-04    5.082e-04    1.607e-02   /
#      CHEB/ -2.868e-02   -1.717e-02   -3.058e-03   -1.870e-03   5.003e-04   /
#      CHEB/ 5.072e-04    1.070e-04    -2.283e-02   8.207e-03    -3.143e-03  /
#      CHEB/ -7.224e-03   -4.733e-04   3.845e-05    -3.606e-05   -5.700e-05  /
#  aQOOH[O](+M) <=> aQOOHg(+M)                         1.000e+00 0.000     0.000
#      TCHEB/ 180.000   1500.000 /
#      PCHEB/ 0.010     98.692   /
#      CHEB/ 10 8/
#      CHEB/ -5.748e+00   2.742e+00    -2.010e-01   2.420e-02    9.237e-04   /
#      CHEB/ -3.179e-03   9.944e-05    7.268e-04    -5.469e+00   5.098e-01   /
#      CHEB/ 3.202e-02    3.412e-03    1.568e-02    2.101e-03    -1.043e-03  /
#      CHEB/ -5.751e-04   -3.360e+00   1.249e-02    -1.051e-01   -3.948e-02  /
#      CHEB/ 4.075e-03    2.663e-03    -2.751e-05   3.518e-04    -1.489e+00  /
#      CHEB/ 1.882e-02    4.231e-03    -5.721e-03   -5.004e-03   -1.071e-03  /
#      CHEB/ -2.502e-04   -6.755e-05   -6.747e-01   -2.568e-02   1.487e-02   /
#      CHEB/ 1.107e-02    1.953e-03    4.803e-04    5.633e-05    -2.134e-04  /