units(length='cm', time='s', quantity='mol', act_energy='kcal/mol')

ideal_gas(name='gas',
          elements="H D T C Ci O Oi N Ne Ar He Si S F Cl Br I X",
          species="""OH             bQOOH[O]       acetone
                     H2O            balkoxyketone  ibutenol
                     trisub_epoxy   bQOOHg         CH2O
                     galkene        O2             bR
                     bQOOHa         bRO2           disub_epoxy
                     HO2""",
          reactions='all',
          initial_state=state(temperature=300.0, pressure=OneAtm))

#-------------------------------------------------------------------------------
# Element data
#-------------------------------------------------------------------------------

element(symbol='Ci', atomic_mass=13.003)
element(symbol='D', atomic_mass=2.014)
element(symbol='Oi', atomic_mass=18.0)
element(symbol='T', atomic_mass=3.016)
element(symbol='X', atomic_mass=195.083)
#-------------------------------------------------------------------------------
# Species data
#-------------------------------------------------------------------------------

species(name='OH',
        atoms='H:1 O:1',
        thermo=(NASA([10.00, 984.14],
                     [ 3.49686242E+00,  1.83973160E-04, -9.97634499E-07,
                       1.56942783E-09, -6.10128175E-13,  3.41673934E+03,
                       1.48093120E+00]),
                NASA([984.14, 3000.00],
                     [ 3.45221464E+00, -2.95124034E-04,  7.39418622E-07,
                      -2.89309866E-10,  3.53041498E-14,  3.45751599E+03,
                       1.85813897E+00])))

species(name='bQOOH[O]',
        atoms='C:4 H:9 O:3',
        thermo=(NASA([10.00, 338.69],
                     [ 3.60915854E+00,  3.39069566E-02,  2.22227265E-04,
                      -8.23527342E-07,  8.56246333E-10, -2.40121503E+04,
                       1.23284605E+01]),
                NASA([338.69, 3000.00],
                     [ 5.03198881E+00,  5.46235886E-02, -3.56935806E-05,
                       1.12371751E-08, -1.35390171E-12, -2.43237330E+04,
                       3.82760723E+00])))

species(name='acetone',
        atoms='C:3 H:6 O:1',
        thermo=(NASA([10.00, 414.35],
                     [ 3.73496166E+00,  3.05743218E-02, -1.26253585E-04,
                       3.66080978E-07, -3.31430437E-10, -2.84558414E+04,
                       8.24936012E+00]),
                NASA([414.35, 3000.00],
                     [ 1.70010292E-01,  3.28431468E-02, -1.80960132E-05,
                       4.82960690E-09, -5.02388538E-13, -2.78844583E+04,
                       2.56372653E+01])))

species(name='H2O',
        atoms='H:2 O:1',
        thermo=(NASA([10.00, 773.84],
                     [ 4.00473541E+00, -2.39729134E-04,  8.11862955E-07,
                       1.47891862E-09, -1.19783539E-12, -3.03533807E+04,
                      -9.96254147E-02]),
                NASA([773.84, 3000.00],
                     [ 3.52133374E+00,  1.05377009E-03,  6.40722099E-07,
                      -3.86240235E-10,  5.49243294E-14, -3.02424794E+04,
                       2.34173094E+00])))

species(name='balkoxyketone',
        atoms='C:4 H:7 O:2',
        thermo=(NASA([10.00, 269.93],
                     [ 3.81931151E+00,  1.68519318E-02,  2.42742224E-04,
                      -9.64821161E-07,  1.18509335E-09, -1.88547793E+04,
                       1.20521854E+01]),
                NASA([269.93, 3000.00],
                     [ 3.57555944E+00,  4.28868089E-02, -2.65390705E-05,
                       7.99659117E-09, -9.32983470E-13, -1.89233074E+04,
                       1.13957990E+01])))

species(name='ibutenol',
        atoms='C:4 H:8 O:1',
        thermo=(NASA([10.00, 135.97],
                     [ 3.95714996E+00,  5.72646980E-03,  4.63611760E-04,
                      -3.04137514E-06,  6.85019471E-09, -2.38348693E+04,
                       8.21931848E+00]),
                NASA([135.97, 3000.00],
                     [ 3.32467612E+00,  3.69033556E-02, -1.89960416E-05,
                       4.73417677E-09, -4.59705291E-13, -2.38292906E+04,
                       9.58133237E+00])))

species(name='trisub_epoxy',
        atoms='C:4 H:8 O:2',
        thermo=(NASA([10.00, 209.19],
                     [ 3.75295042E+00,  2.37546930E-02,  1.26610110E-04,
                      -4.78364365E-07,  5.79468168E-10, -4.03164836E+04,
                       1.12739684E+01]),
                NASA([209.19, 3000.00],
                     [ 2.64185254E+00,  4.50006531E-02, -2.57361066E-05,
                       7.15266054E-09, -7.72980731E-13, -4.02699980E+04,
                       1.48960343E+01])))

species(name='bQOOHg',
        atoms='C:4 H:9 O:3',
        thermo=(NASA([10.00, 441.09],
                     [ 3.56595280E+00,  3.36073467E-02,  2.03462772E-04,
                      -5.98977617E-07,  4.83271168E-10, -2.19931617E+04,
                       1.33537891E+01]),
                NASA([441.09, 3000.00],
                     [ 6.09031192E+00,  5.80517622E-02, -4.06392697E-05,
                       1.32574026E-08, -1.62501077E-12, -2.26763471E+04,
                      -1.97849715E+00])))

species(name='CH2O',
        atoms='C:1 H:2 O:1',
        thermo=(NASA([10.00, 601.31],
                     [ 4.03190845E+00, -1.93233367E-03,  8.89743345E-06,
                       2.98105926E-09, -7.90813886E-12, -1.42276270E+04,
                       3.47574660E+00]),
                NASA([601.31, 3000.00],
                     [ 1.40134195E+00,  9.48858016E-03, -4.43088317E-06,
                       9.48452194E-10, -7.43790219E-14, -1.38013869E+04,
                       1.57423780E+01])))

species(name='galkene',
        atoms='C:4 H:8 O:1',
        thermo=(NASA([10.00, 383.47],
                     [ 3.84035604E+00,  1.20378740E-02,  1.87486319E-04,
                      -5.44759148E-07,  4.80711015E-10, -2.20529371E+04,
                       1.02570291E+01]),
                NASA([383.47, 3000.00],
                     [ 4.00413385E+00,  3.79025144E-02, -2.15435710E-05,
                       6.15213311E-09, -6.97446345E-13, -2.22682264E+04,
                       6.98052628E+00])))

species(name='O2',
        atoms='O:2',
        thermo=(NASA([10.00, 605.96],
                     [ 3.50743498E+00, -4.43860349E-04,  1.45938058E-06,
                       1.61509333E-09, -2.32050052E-12, -9.24756224E+02,
                       4.72183634E+00]),
                NASA([605.96, 3000.00],
                     [ 2.87462882E+00,  2.17840991E-03, -1.18262921E-06,
                       2.86910493E-10, -2.53297146E-14, -8.19517838E+02,
                       7.69331810E+00])))

species(name='bR',
        atoms='C:4 H:9 O:1',
        thermo=(NASA([10.00, 483.43],
                     [ 3.38164846E+00,  5.97142637E-02, -1.58320095E-04,
                       3.04908893E-07, -2.13091806E-10, -1.19424426E+04,
                       1.09226843E+01]),
                NASA([483.43, 3000.00],
                     [ 2.33428824E+00,  4.22094427E-02, -2.28029290E-05,
                       6.04614564E-09, -6.30240159E-13, -1.15353607E+04,
                       1.83772893E+01])))

species(name='bQOOHa',
        atoms='C:4 H:9 O:3',
        thermo=(NASA([10.00, 390.53],
                     [ 3.54969236E+00,  3.76592474E-02,  1.76622653E-04,
                      -5.98063750E-07,  5.45069236E-10, -2.75978644E+04,
                       1.31518761E+01]),
                NASA([390.53, 3000.00],
                     [ 5.33564209E+00,  5.64935715E-02, -3.83214298E-05,
                       1.22990604E-08, -1.49549987E-12, -2.80204743E+04,
                       2.59015836E+00])))

species(name='bRO2',
        atoms='C:4 H:9 O:3',
        thermo=(NASA([10.00, 461.39],
                     [ 3.53964713E+00,  3.88723795E-02,  9.57420148E-05,
                      -2.80380499E-07,  2.09647462E-10, -3.49479418E+04,
                       1.18803618E+01]),
                NASA([461.39, 3000.00],
                     [ 3.47201723E+00,  6.00510247E-02, -4.00567321E-05,
                       1.25663813E-08, -1.49496682E-12, -3.51608886E+04,
                       9.77903975E+00])))

species(name='disub_epoxy',
        atoms='C:4 H:8 O:2',
        thermo=(NASA([10.00, 549.41],
                     [ 3.89863211E+00,  5.97532637E-03,  1.66685676E-04,
                      -3.10743768E-07,  1.78330192E-10, -3.59990133E+04,
                       1.13847308E+01]),
                NASA([549.41, 3000.00],
                     [-6.40277648E-01,  6.05960003E-02, -4.13427220E-05,
                       1.31555461E-08, -1.57685017E-12, -3.58258964E+04,
                       2.76005436E+01])))

species(name='HO2',
        atoms='H:1 O:2',
        thermo=(NASA([10.00, 891.11],
                     [ 4.02887004E+00, -1.75769289E-03,  1.08726004E-05,
                      -1.13812972E-08,  3.90113097E-12,  4.95165001E+02,
                       4.69302008E+00]),
                NASA([891.11, 3000.00],
                     [ 3.06571044E+00,  4.28505005E-03, -2.19325920E-06,
                       5.58882699E-10, -5.61246669E-14,  5.98557610E+02,
                       8.84564156E+00])))

#-------------------------------------------------------------------------------
# Reaction data
#-------------------------------------------------------------------------------

# Reaction 1
chebyshev_reaction('bQOOHg (+ M) <=> bRO2 (+ M)',
                   Tmin=180.0, Tmax=1500.0,
                   Pmin=(0.01, 'atm'), Pmax=(98.692, 'atm'),
                   coeffs=[[ 7.18300e-01,  1.52100e+00,  1.78600e-02,  1.74100e-02, -5.09200e-03, -1.37600e-03, -5.93800e-04, -1.18900e-04],
                           [-4.93900e+00,  9.94100e-01,  1.67100e-01,  3.90800e-02,  5.51500e-03, -4.45300e-03, -2.12500e-03, -2.24400e-04],
                           [-2.61900e+00,  1.32600e-01, -2.44900e-02,  7.04800e-03,  7.23100e-03,  1.06200e-03, -2.58900e-04, -1.50900e-04],
                           [-1.12300e+00,  3.53700e-02, -2.56400e-02, -1.22300e-02, -2.70600e-03, -3.08500e-04,  3.90400e-04,  2.77400e-04],
                           [-4.72100e-01,  9.03400e-03, -1.08200e-03, -6.98100e-04, -5.22400e-04, -8.25200e-05, -1.83500e-04, -7.19400e-05],
                           [-2.24600e-01, -3.13000e-02, -1.32900e-02,  2.57100e-03,  1.91000e-03,  1.67300e-03,  2.87800e-04, -1.37200e-04],
                           [-1.72800e-01, -2.01500e-02, -8.72700e-03, -2.20200e-03,  7.96800e-04,  9.16600e-04,  3.17700e-04,  1.36800e-05],
                           [-1.38800e-01, -1.05000e-02,  7.57900e-04, -8.40600e-04,  5.72400e-04,  7.91800e-05, -7.44400e-05, -7.63900e-05],
                           [-6.74600e-02, -1.81000e-02, -2.24100e-03,  1.34300e-03,  9.70900e-04,  3.70600e-04, -2.42200e-05, -9.88900e-05],
                           [-3.46100e-02, -9.25100e-03, -2.76100e-03, -1.13000e-04,  4.74200e-04,  2.49300e-04,  1.15400e-04,  4.11800e-06]])

# Reaction 2
chebyshev_reaction('bQOOHa (+ M) <=> bRO2 (+ M)',
                   Tmin=180.0, Tmax=1500.0,
                   Pmin=(0.01, 'atm'), Pmax=(98.692, 'atm'),
                   coeffs=[[-6.82800e+00,  4.28200e+00,  3.43800e-02, -2.22700e-01, -2.56800e-02,  3.20300e-02,  5.51000e-03, -6.13500e-03],
                           [ 3.05500e+00, -1.63100e+00,  3.89100e-01,  3.46300e-01,  8.47000e-03, -5.48400e-02, -8.70100e-03,  8.49800e-03],
                           [-2.05700e+00, -1.61500e-01, -2.04600e-01, -1.14700e-02,  2.92100e-02,  1.32700e-02, -1.01800e-03, -2.05100e-03],
                           [-9.99900e-01, -9.05900e-02, -1.44500e-01, -5.52500e-02,  7.40900e-03,  1.11500e-02,  2.49900e-03, -8.85400e-04],
                           [-5.40600e-01,  5.76600e-02, -3.31600e-02, -1.21000e-02, -1.26000e-03,  2.82800e-03,  5.66000e-04, -8.74300e-04],
                           [-2.92200e-01,  6.74700e-02,  2.71300e-02,  3.76000e-03,  6.96900e-04, -1.50700e-03, -8.94900e-04,  8.28800e-05],
                           [-2.57500e-01,  8.32000e-02,  2.66800e-02, -1.30800e-03, -6.20100e-03, -7.67100e-04,  1.26200e-03,  5.35700e-04],
                           [-1.06100e-01, -1.32600e-02,  2.84900e-03, -2.00300e-03, -1.17500e-03, -3.60900e-04,  3.71800e-04,  5.07400e-04],
                           [-7.39500e-02, -2.56400e-02, -2.96000e-04, -4.97300e-06, -5.93300e-04,  3.24700e-05,  2.07700e-04, -4.60100e-05],
                           [-2.48600e-02, -2.90400e-02, -1.96800e-03,  2.56900e-03,  1.42400e-03, -1.24300e-04, -4.85300e-04, -1.90800e-04]])

# Reaction 3
chebyshev_reaction('bQOOH[O] (+ M) <=> bRO2 (+ M)',
                   Tmin=180.0, Tmax=1500.0,
                   Pmin=(0.01, 'atm'), Pmax=(98.692, 'atm'),
                   coeffs=[[ 5.54100e+00,  1.05000e+00, -1.22700e-01,  7.55600e-03,  2.12800e-03, -5.89800e-04,  9.80000e-05,  1.00700e-04],
                           [-1.98500e+00,  1.01500e+00,  5.74400e-02, -2.62400e-02, -6.12300e-04,  2.08200e-03,  5.87100e-05, -1.32400e-04],
                           [-2.63100e+00,  6.52200e-02,  8.49800e-02,  1.78900e-02, -5.13100e-03, -1.27800e-03,  6.51500e-04,  1.35500e-04],
                           [-1.37800e+00, -1.86100e-01, -1.77400e-02,  2.06000e-02,  5.90600e-03, -1.43200e-03, -6.75100e-04,  1.57000e-04],
                           [-6.42300e-01, -1.09800e-01, -4.57200e-02, -3.95000e-03,  5.18100e-03,  1.74600e-03, -3.62000e-04, -2.76500e-04],
                           [-2.80100e-01, -1.22900e-02, -1.35900e-02, -9.30900e-03, -2.04900e-03,  9.59800e-04,  6.31300e-04, -4.26300e-05],
                           [-1.37300e-01,  1.69100e-02,  1.25100e-02,  2.20300e-03, -2.87700e-03, -1.41200e-03,  1.67300e-04,  2.81200e-04],
                           [-8.14100e-02, -3.93700e-03,  1.36600e-02,  9.21500e-03,  1.48600e-03, -1.31300e-03, -6.58700e-04,  5.26200e-05],
                           [-5.99300e-02, -2.67100e-02,  4.76700e-04,  6.50300e-03,  3.64800e-03,  4.44300e-04, -4.73400e-04, -2.43700e-04],
                           [-3.85400e-02, -3.10900e-02, -9.23400e-03,  5.58600e-05,  2.07000e-03,  1.19100e-03,  2.19300e-04, -1.33600e-04]])

# Reaction 4
chebyshev_reaction('O2 + bR (+ M) <=> bRO2 (+ M)',
                   Tmin=180.0, Tmax=1500.0,
                   Pmin=(0.01, 'atm'), Pmax=(98.692, 'atm'),
                   coeffs=[[ 1.25800e+01,  4.29900e-01, -4.51700e-02,  3.34500e-03, -9.15300e-04,  1.54000e-04, -2.78900e-05,  5.22700e-06],
                           [-1.21100e+00,  7.65400e-01, -6.45000e-02,  1.81300e-03, -8.48700e-04,  8.54800e-05, -5.79100e-06,  3.55100e-07],
                           [-8.82700e-01,  5.44200e-01, -1.31000e-02, -4.75300e-03, -7.43000e-05, -2.56400e-05,  5.61500e-06, -2.89500e-07],
                           [-6.57800e-01,  3.07800e-01,  2.56000e-02, -5.16700e-03, -5.13300e-04,  2.52000e-05,  7.97100e-07, -1.54300e-06],
                           [-4.46000e-01,  1.31200e-01,  3.66600e-02, -5.54600e-04, -1.00700e-03, -3.81200e-05,  1.63200e-05, -3.89200e-06],
                           [-2.85000e-01,  2.96600e-02,  2.86600e-02,  3.73000e-03, -6.06000e-04, -1.92800e-04,  1.29000e-05,  4.89900e-08],
                           [-1.75000e-01, -1.62200e-02,  1.56400e-02,  4.91000e-03,  2.87100e-04, -2.16300e-04, -2.62900e-05,  3.09700e-06],
                           [-1.03600e-01, -3.11400e-02,  5.55100e-03,  3.77800e-03,  8.65200e-04, -6.56900e-05, -5.66600e-05, -3.33000e-06],
                           [-5.81400e-02, -3.20500e-02, -1.74500e-04,  2.12000e-03,  8.82800e-04,  1.02500e-04, -4.31900e-05, -1.28200e-05],
                           [-2.96600e-02, -2.74700e-02, -2.93000e-03,  9.32600e-04,  5.96800e-04,  1.64200e-04, -5.10500e-06, -1.37200e-05]])
#  bRO2(+M) <=> bQOOHg(+M)                             1.000e+00 0.000     0.000
#      TCHEB/ 180.000   1500.000 /
#      PCHEB/ 0.010     98.692   /
#      CHEB/ 10 8/
#      CHEB/ -1.583e+01   1.521e+00    1.786e-02    1.741e-02    -5.092e-03  /
#      CHEB/ -1.376e-03   -5.938e-04   -1.189e-04   9.207e+00    9.941e-01   /
#      CHEB/ 1.671e-01    3.908e-02    5.515e-03    -4.453e-03   -2.125e-03  /
#      CHEB/ -2.244e-04   -2.474e+00   1.326e-01    -2.449e-02   7.048e-03   /
#      CHEB/ 7.231e-03    1.062e-03    -2.589e-04   -1.509e-04   -1.086e+00  /
#      CHEB/ 3.537e-02    -2.564e-02   -1.223e-02   -2.706e-03   -3.085e-04  /
#      CHEB/ 3.904e-04    2.774e-04    -4.664e-01   9.034e-03    -1.082e-03  /
#      CHEB/ -6.981e-04   -5.224e-04   -8.252e-05   -1.835e-04   -7.194e-05  /
#      CHEB/ -2.248e-01   -3.130e-02   -1.329e-02   2.571e-03    1.910e-03   /
#      CHEB/ 1.673e-03    2.878e-04    -1.372e-04   -1.734e-01   -2.015e-02  /
#      CHEB/ -8.727e-03   -2.202e-03   7.968e-04    9.166e-04    3.177e-04   /
#      CHEB/ 1.368e-05    -1.392e-01   -1.050e-02   7.579e-04    -8.406e-04  /
#      CHEB/ 5.724e-04    7.918e-05    -7.444e-05   -7.639e-05   -6.778e-02  /
#      CHEB/ -1.810e-02   -2.241e-03   1.343e-03    9.709e-04    3.706e-04   /
#      CHEB/ -2.422e-05   -9.889e-05   -3.479e-02   -9.251e-03   -2.761e-03  /
#      CHEB/ -1.130e-04   4.742e-04    2.493e-04    1.154e-04    4.118e-06   /

# Reaction 5
chebyshev_reaction('bQOOHa (+ M) <=> bQOOHg (+ M)',
                   Tmin=180.0, Tmax=1500.0,
                   Pmin=(0.01, 'atm'), Pmax=(98.692, 'atm'),
                   coeffs=[[-2.24400e+01,  4.63900e+00,  4.02200e-01, -1.32700e-01, -5.48900e-02,  6.75100e-03,  3.43200e-04, -3.99500e-03],
                           [ 3.40600e+00, -1.16500e+00,  3.59400e-01,  3.51300e-01,  4.25300e-02, -3.77700e-02, -7.27400e-03,  6.38700e-03],
                           [-2.48500e+00, -6.09200e-01, -4.43900e-01, -5.45700e-02,  4.17900e-02,  2.57700e-02,  2.89600e-03, -3.09000e-03],
                           [-1.11700e+00, -1.71200e-01, -1.68800e-01, -6.38600e-02, -2.42100e-03,  3.83100e-03, -4.36000e-04, -6.44100e-04],
                           [-4.86000e-01,  1.25500e-01,  2.55600e-03, -7.70400e-03, -9.63000e-03, -3.37100e-03, -6.50500e-04, -5.10100e-05],
                           [-2.31700e-01,  8.93100e-02,  2.08400e-02,  2.31000e-03,  4.31300e-04,  8.94400e-04,  6.61800e-04,  3.72900e-04],
                           [-2.17800e-01,  7.42300e-02,  4.74700e-03, -4.21600e-03,  8.52800e-05,  2.56900e-03,  1.58800e-03, -9.02700e-05],
                           [-1.43000e-01, -2.80000e-04,  4.01900e-03,  1.13600e-05,  6.20500e-04,  1.13200e-04, -2.19400e-04,  3.82000e-05],
                           [-6.60200e-02, -3.02300e-02,  2.53100e-03,  2.60500e-03, -2.41800e-04, -4.15900e-04,  1.45100e-05, -1.62600e-05],
                           [-1.95000e-02, -2.34700e-02, -3.85800e-04,  1.36600e-03,  3.29500e-04, -2.33100e-04, -8.12300e-05,  1.20200e-04]])

# Reaction 6
chebyshev_reaction('bQOOH[O] (+ M) <=> bQOOHg (+ M)',
                   Tmin=180.0, Tmax=1500.0,
                   Pmin=(0.01, 'atm'), Pmax=(98.692, 'atm'),
                   coeffs=[[-9.71000e+00,  1.50200e+00, -1.50700e-02, -7.09700e-03, -1.49800e-02, -3.86800e-03, -3.12100e-04,  2.18400e-04],
                           [-2.16700e+00,  1.62600e+00,  3.02400e-01,  6.67000e-02,  1.08200e-02, -6.88300e-03, -4.69300e-03, -7.67300e-04],
                           [-3.11900e+00, -3.03400e-01, -7.39700e-02,  1.87000e-02,  1.70200e-02,  6.60700e-03,  1.06100e-03, -5.87500e-04],
                           [-1.49800e+00, -3.02400e-01, -1.32400e-01, -2.65400e-02,  6.29000e-04,  3.22000e-03,  1.90900e-03,  6.35000e-04],
                           [-5.98300e-01, -8.74100e-02, -6.13000e-02, -2.33400e-02, -2.70600e-03,  1.48700e-03,  3.93400e-04,  9.35000e-06],
                           [-2.06200e-01,  3.35700e-03, -9.19100e-03, -9.60400e-03, -4.40700e-03,  5.81600e-04,  4.76100e-04, -3.29900e-05],
                           [-1.37600e-01,  5.73400e-02,  1.75900e-02,  3.18300e-03, -2.80900e-03, -2.08300e-03, -3.20200e-04,  1.22900e-04],
                           [-1.17600e-01,  3.40900e-02,  2.30900e-02,  1.17800e-02,  2.31600e-03, -1.61400e-03, -1.19200e-03, -2.80700e-04],
                           [-6.07500e-02, -1.89100e-02,  6.29000e-03,  8.61000e-03,  5.10600e-03,  1.14800e-03, -4.84500e-04, -4.66200e-04],
                           [-3.76900e-02, -2.01600e-02, -8.41800e-03, -8.51500e-05,  2.71400e-03,  1.91500e-03,  5.80400e-04, -1.07700e-04]])

# Reaction 7
chebyshev_reaction('O2 + bR (+ M) <=> bQOOHg (+ M)',
                   Tmin=180.0, Tmax=1500.0,
                   Pmin=(0.01, 'atm'), Pmax=(98.692, 'atm'),
                   coeffs=[[-1.53100e+00,  2.20700e+00,  6.96100e-01,  1.01200e-01, -7.60000e-02, -6.37800e-02, -2.41500e-02,  1.10300e-03],
                           [-2.29300e+00, -1.87500e-01, -3.39600e-01,  5.92600e-02,  9.22900e-02,  5.00100e-02,  1.39500e-02, -4.63300e-03],
                           [-1.30800e+00, -2.22100e-02, -2.82900e-01, -6.57300e-02,  1.40900e-02,  1.93000e-02,  9.13200e-03,  1.26000e-03],
                           [-6.97800e-01,  2.06000e-01, -6.42000e-02, -6.08000e-02, -2.13400e-02, -3.56600e-03,  2.59800e-03,  3.06600e-03],
                           [-3.58500e-01,  1.58600e-01,  4.35700e-02, -1.10700e-02, -1.06300e-02, -5.99500e-03, -1.99200e-03,  3.43700e-04],
                           [-1.76400e-01,  2.85300e-02,  4.29200e-02,  8.50200e-03, -2.14100e-04, -1.95400e-03, -1.83500e-03, -8.20800e-04],
                           [-1.41800e-01,  1.04500e-02,  2.31500e-02,  6.81800e-03,  3.03700e-04, -1.08800e-03, -7.11100e-04, -3.12900e-04],
                           [-1.08100e-01, -8.46700e-03,  1.80600e-02,  7.90600e-03,  2.09200e-03, -3.07900e-04, -6.42800e-04, -4.78600e-04],
                           [-3.55800e-02, -3.39100e-02,  7.95000e-03,  6.25800e-03,  2.90700e-03,  7.77100e-04, -1.04700e-04, -2.91100e-04],
                           [-1.14800e-02, -1.97600e-02, -1.22400e-03,  2.52600e-03,  1.74700e-03,  8.91800e-04,  3.46100e-04,  4.44900e-05]])
#  bRO2(+M) <=> bQOOHa(+M)                             1.000e+00 0.000     0.000
#      TCHEB/ 180.000   1500.000 /
#      PCHEB/ 0.010     98.692   /
#      CHEB/ 10 8/
#      CHEB/ -1.591e+01   4.282e+00    3.438e-02    -2.227e-01   -2.568e-02  /
#      CHEB/ 3.203e-02    5.510e-03    -6.135e-03   1.110e+01    -1.631e+00  /
#      CHEB/ 3.891e-01    3.463e-01    8.470e-03    -5.484e-02   -8.701e-03  /
#      CHEB/ 8.498e-03    -2.002e+00   -1.615e-01   -2.046e-01   -1.147e-02  /
#      CHEB/ 2.921e-02    1.327e-02    -1.018e-03   -2.051e-03   -9.986e-01  /
#      CHEB/ -9.059e-02   -1.445e-01   -5.525e-02   7.409e-03    1.115e-02   /
#      CHEB/ 2.499e-03    -8.854e-04   -5.454e-01   5.766e-02    -3.316e-02  /
#      CHEB/ -1.210e-02   -1.260e-03   2.828e-03    5.660e-04    -8.743e-04  /
#      CHEB/ -2.949e-01   6.747e-02    2.713e-02    3.760e-03    6.969e-04   /
#      CHEB/ -1.507e-03   -8.949e-04   8.288e-05    -2.589e-01   8.320e-02   /
#      CHEB/ 2.668e-02    -1.308e-03   -6.201e-03   -7.671e-04   1.262e-03   /
#      CHEB/ 5.357e-04    -1.068e-01   -1.326e-02   2.849e-03    -2.003e-03  /
#      CHEB/ -1.175e-03   -3.609e-04   3.718e-04    5.074e-04    -7.430e-02  /
#      CHEB/ -2.564e-02   -2.960e-04   -4.973e-06   -5.933e-04   3.247e-05   /
#      CHEB/ 2.077e-04    -4.601e-05   -2.498e-02   -2.904e-02   -1.968e-03  /
#      CHEB/ 2.569e-03    1.424e-03    -1.243e-04   -4.853e-04   -1.908e-04  /
#  bQOOHg(+M) <=> bQOOHa(+M)                           1.000e+00 0.000     0.000
#      TCHEB/ 180.000   1500.000 /
#      PCHEB/ 0.010     98.692   /
#      CHEB/ 10 8/
#      CHEB/ -1.497e+01   4.639e+00    4.022e-01    -1.327e-01   -5.489e-02  /
#      CHEB/ 6.751e-03    3.432e-04    -3.995e-03   -2.692e+00   -1.165e+00  /
#      CHEB/ 3.594e-01    3.513e-01    4.253e-02    -3.777e-02   -7.274e-03  /
#      CHEB/ 6.387e-03    -2.576e+00   -6.092e-01   -4.439e-01   -5.457e-02  /
#      CHEB/ 4.179e-02    2.577e-02    2.896e-03    -3.090e-03   -1.153e+00  /
#      CHEB/ -1.712e-01   -1.688e-01   -6.386e-02   -2.421e-03   3.831e-03   /
#      CHEB/ -4.360e-04   -6.441e-04   -4.966e-01   1.255e-01    2.556e-03   /
#      CHEB/ -7.704e-03   -9.630e-03   -3.371e-03   -6.505e-04   -5.101e-05  /
#      CHEB/ -2.343e-01   8.931e-02    2.084e-02    2.310e-03    4.313e-04   /
#      CHEB/ 8.944e-04    6.618e-04    3.729e-04    -2.185e-01   7.423e-02   /
#      CHEB/ 4.747e-03    -4.216e-03   8.528e-05    2.569e-03    1.588e-03   /
#      CHEB/ -9.027e-05   -1.433e-01   -2.800e-04   4.019e-03    1.136e-05   /
#      CHEB/ 6.205e-04    1.132e-04    -2.194e-04   3.820e-05    -6.604e-02  /
#      CHEB/ -3.023e-02   2.531e-03    2.605e-03    -2.418e-04   -4.159e-04  /
#      CHEB/ 1.451e-05    -1.626e-05   -1.943e-02   -2.347e-02   -3.858e-04  /
#      CHEB/ 1.366e-03    3.295e-04    -2.331e-04   -8.123e-05   1.202e-04   /

# Reaction 8
chebyshev_reaction('bQOOH[O] (+ M) <=> bQOOHa (+ M)',
                   Tmin=180.0, Tmax=1500.0,
                   Pmin=(0.01, 'atm'), Pmax=(98.692, 'atm'),
                   coeffs=[[-1.02000e+01,  4.11400e+00,  1.57000e-01, -1.82300e-01, -5.55900e-02,  1.09000e-02,  4.90400e-03, -2.47900e-03],
                           [ 2.34600e-01, -9.67100e-01,  2.73100e-01,  2.90900e-01,  4.07500e-02, -3.31700e-02, -9.02400e-03,  5.24500e-03],
                           [-2.70700e+00, -5.53800e-01, -2.73700e-01, -2.14800e-02,  4.09000e-02,  2.42100e-02,  1.16900e-03, -4.44500e-03],
                           [-1.48000e+00, -3.67200e-01, -1.40400e-01, -3.50300e-02,  3.68700e-03,  5.08800e-03,  9.76800e-04, -1.09800e-04],
                           [-6.73700e-01,  1.90800e-03, -4.40000e-02, -1.99400e-02, -9.99700e-03, -9.36400e-04,  1.02500e-03,  4.14700e-04],
                           [-2.82800e-01,  1.08600e-01,  1.04000e-02, -1.17100e-02, -5.31900e-03, -6.78300e-04,  7.44600e-04,  4.26300e-04],
                           [-1.77700e-01,  1.11100e-01,  2.17300e-02,  4.75400e-04, -2.44900e-03, -3.89200e-04,  5.86000e-04,  4.60000e-05],
                           [-9.61000e-02,  1.34100e-02,  1.85000e-02,  8.77800e-03,  2.39300e-03, -9.43400e-04, -1.08900e-03,  8.30400e-05],
                           [-7.66600e-02, -2.26700e-02,  6.91800e-03,  5.97900e-03,  2.36600e-03,  2.52800e-04, -1.79400e-04, -2.50400e-04],
                           [-3.66100e-02, -3.53800e-02, -4.64500e-03, -2.11100e-05,  1.65600e-03,  1.15500e-03,  2.53200e-04, -8.22100e-05]])

# Reaction 9
chebyshev_reaction('O2 + bR (+ M) <=> bQOOHa (+ M)',
                   Tmin=180.0, Tmax=1500.0,
                   Pmin=(0.01, 'atm'), Pmax=(98.692, 'atm'),
                   coeffs=[[-2.36900e+00,  4.22500e+00,  7.81100e-01, -2.54900e-03, -5.25400e-02, -2.11900e-02, -1.04600e-02, -2.52800e-03],
                           [ 5.60000e-01, -2.48500e+00, -4.18600e-01,  1.34200e-01,  4.49600e-02,  1.15300e-02,  1.30400e-02,  5.00600e-03],
                           [-9.90300e-01, -5.18900e-02, -3.61700e-01, -3.11500e-02,  3.65100e-02,  1.00500e-02, -6.12400e-03, -3.93300e-03],
                           [-7.55900e-01,  2.89400e-01, -5.59900e-02, -5.88700e-02, -7.19600e-03,  5.93000e-04,  6.41400e-04,  7.02500e-04],
                           [-4.50300e-01,  2.53600e-01,  5.06100e-02, -1.92000e-02, -1.08100e-02,  6.67400e-04,  1.41200e-03, -3.42000e-04],
                           [-2.32900e-01,  9.01100e-02,  6.09700e-02,  7.07600e-03, -2.13500e-03, -6.53700e-04,  2.85800e-05,  1.26100e-04],
                           [-1.63100e-01,  1.80500e-02,  2.76900e-02,  8.66900e-03,  1.18700e-03,  1.27500e-04,  6.79300e-04, -5.40200e-05],
                           [-8.55800e-02, -4.06400e-02,  1.06000e-02,  5.60100e-03,  8.89700e-04, -4.38900e-04, -2.47500e-04,  4.50100e-04],
                           [-6.13700e-02, -3.72100e-02,  6.98600e-04,  2.27500e-03,  7.42100e-04,  9.53400e-05,  9.56600e-05, -9.77200e-05],
                           [-2.03900e-02, -2.85400e-02, -2.40300e-03,  1.03700e-03,  7.33100e-04, -1.10000e-04, -1.86000e-04,  3.72700e-05]])
#  bRO2(+M) <=> bQOOH[O](+M)                           1.000e+00 0.000     0.000
#      TCHEB/ 180.000   1500.000 /
#      PCHEB/ 0.010     98.692   /
#      CHEB/ 10 8/
#      CHEB/ -8.796e+00   1.050e+00    -1.227e-01   7.556e-03    2.128e-03   /
#      CHEB/ -5.898e-04   9.800e-05    1.007e-04    9.747e+00    1.015e+00   /
#      CHEB/ 5.744e-02    -2.624e-02   -6.123e-04   2.082e-03    5.871e-05   /
#      CHEB/ -1.324e-04   -2.637e+00   6.522e-02    8.498e-02    1.789e-02   /
#      CHEB/ -5.131e-03   -1.278e-03   6.515e-04    1.355e-04    -1.400e+00  /
#      CHEB/ -1.861e-01   -1.774e-02   2.060e-02    5.906e-03    -1.432e-03  /
#      CHEB/ -6.751e-04   1.570e-04    -6.530e-01   -1.098e-01   -4.572e-02  /
#      CHEB/ -3.950e-03   5.181e-03    1.746e-03    -3.620e-04   -2.765e-04  /
#      CHEB/ -2.840e-01   -1.229e-02   -1.359e-02   -9.309e-03   -2.049e-03  /
#      CHEB/ 9.598e-04    6.313e-04    -4.263e-05   -1.389e-01   1.691e-02   /
#      CHEB/ 1.251e-02    2.203e-03    -2.877e-03   -1.412e-03   1.673e-04   /
#      CHEB/ 2.812e-04    -8.204e-02   -3.937e-03   1.366e-02    9.215e-03   /
#      CHEB/ 1.486e-03    -1.313e-03   -6.587e-04   5.262e-05    -6.011e-02  /
#      CHEB/ -2.671e-02   4.767e-04    6.503e-03    3.648e-03    4.443e-04   /
#      CHEB/ -4.734e-04   -2.437e-04   -3.854e-02   -3.109e-02   -9.234e-03  /
#      CHEB/ 5.586e-05    2.070e-03    1.191e-03    2.193e-04    -1.336e-04  /
#  bQOOHg(+M) <=> bQOOH[O](+M)                         1.000e+00 0.000     0.000
#      TCHEB/ 180.000   1500.000 /
#      PCHEB/ 0.010     98.692   /
#      CHEB/ 10 8/
#      CHEB/ -7.496e+00   1.502e+00    -1.507e-02   -7.097e-03   -1.498e-02  /
#      CHEB/ -3.868e-03   -3.121e-04   2.184e-04    -4.582e+00   1.626e+00   /
#      CHEB/ 3.024e-01    6.670e-02    1.082e-02    -6.883e-03   -4.693e-03  /
#      CHEB/ -7.673e-04   -3.270e+00   -3.034e-01   -7.397e-02   1.870e-02   /
#      CHEB/ 1.702e-02    6.607e-03    1.061e-03    -5.875e-04   -1.557e+00  /