units(length='cm', time='s', quantity='mol', act_energy='kcal/mol')

ideal_gas(name='gas',
          elements="H D T C Ci O Oi N Ne Ar He Si S F Cl Br I X",
          species="""propene3ol       OH               disub_c4ether
                     H2O              disub_epoxy      gQOOHa
                     propene1ol       gQOOHb           ipropylOOH
                     galdoxy          galkene          CH2O
                     O2               gRO2             gQOOHg
                     gR               galdol           monosub_c4ether
                     HO2              gQOOH[O]""",
          reactions='all',
          initial_state=state(temperature=300.0, pressure=OneAtm))

#-------------------------------------------------------------------------------
# Element data
#-------------------------------------------------------------------------------

element(symbol='Ci', atomic_mass=13.003)
element(symbol='D', atomic_mass=2.014)
element(symbol='Oi', atomic_mass=18.0)
element(symbol='T', atomic_mass=3.016)
element(symbol='X', atomic_mass=195.083)
#-------------------------------------------------------------------------------
# Species data
#-------------------------------------------------------------------------------

species(name='propene3ol',
        atoms='C:3 H:6 O:1',
        thermo=(NASA([10.00, 444.81],
                     [ 3.92769709E+00,  4.89977303E-03,  1.13094874E-04,
                      -2.59008187E-07,  1.86205760E-10, -1.55965314E+04,
                       9.90805416E+00]),
                NASA([444.81, 3000.00],
                     [ 2.61720343E+00,  3.01777872E-02, -1.76511625E-05,
                       5.14864061E-09, -5.91153761E-13, -1.56134319E+04,
                       1.36683107E+01])))

species(name='OH',
        atoms='H:1 O:1',
        thermo=(NASA([10.00, 984.14],
                     [ 3.49686242E+00,  1.83973160E-04, -9.97634499E-07,
                       1.56942783E-09, -6.10128175E-13,  3.41673934E+03,
                       1.48093120E+00]),
                NASA([984.14, 3000.00],
                     [ 3.45221464E+00, -2.95124034E-04,  7.39418622E-07,
                      -2.89309866E-10,  3.53041498E-14,  3.45751599E+03,
                       1.85813897E+00])))

species(name='disub_c4ether',
        atoms='C:4 H:8 O:2',
        thermo=(NASA([10.00, 413.50],
                     [ 3.78241323E+00,  1.89501763E-02,  8.65302396E-05,
                      -1.80580575E-07,  1.13656264E-10, -3.84053724E+04,
                       1.09982450E+01]),
                NASA([413.50, 3000.00],
                     [ 4.29420885E-01,  5.13851903E-02, -3.11292293E-05,
                       9.11498284E-09, -1.03192718E-12, -3.81280780E+04,
                       2.42134976E+01])))

species(name='H2O',
        atoms='H:2 O:1',
        thermo=(NASA([10.00, 773.84],
                     [ 4.00473541E+00, -2.39729134E-04,  8.11862955E-07,
                       1.47891862E-09, -1.19783539E-12, -3.03533807E+04,
                      -9.96254147E-02]),
                NASA([773.84, 3000.00],
                     [ 3.52133374E+00,  1.05377009E-03,  6.40722099E-07,
                      -3.86240235E-10,  5.49243294E-14, -3.02424794E+04,
                       2.34173094E+00])))

species(name='disub_epoxy',
        atoms='C:4 H:8 O:2',
        thermo=(NASA([10.00, 549.41],
                     [ 3.89863211E+00,  5.97532637E-03,  1.66685676E-04,
                      -3.10743768E-07,  1.78330192E-10, -3.60789113E+04,
                       1.13847308E+01]),
                NASA([549.41, 3000.00],
                     [-6.40277648E-01,  6.05960003E-02, -4.13427220E-05,
                       1.31555461E-08, -1.57685017E-12, -3.59057945E+04,
                       2.76005436E+01])))

species(name='gQOOHa',
        atoms='C:4 H:9 O:3',
        thermo=(NASA([10.00, 160.74],
                     [ 3.80808147E+00,  2.31043884E-02,  5.26945984E-04,
                      -3.11500696E-06,  6.03881958E-09, -2.47580107E+04,
                       1.17645316E+01]),
                NASA([160.74, 3000.00],
                     [ 2.90630300E+00,  6.50241173E-02, -4.60073244E-05,
                       1.51330930E-08, -1.87074267E-12, -2.47541861E+04,
                       1.36838819E+01])))

species(name='propene1ol',
        atoms='C:3 H:6 O:1',
        thermo=(NASA([10.00, 459.42],
                     [ 3.91245344E+00,  5.85800161E-03,  1.15412006E-04,
                      -2.68014417E-07,  1.91800131E-10, -1.95309143E+04,
                       8.14807684E+00]),
                NASA([459.42, 3000.00],
                     [ 3.14049093E+00,  2.95550898E-02, -1.73843684E-05,
                       5.11506211E-09, -5.92966137E-13, -1.96391368E+04,
                       9.32215170E+00])))

species(name='gQOOHb',
        atoms='C:4 H:9 O:3',
        thermo=(NASA([10.00, 1018.67],
                     [ 3.99028351E+00,  4.29665712E-02,  2.28338778E-05,
                      -5.67914439E-08,  2.29383258E-11, -2.45401926E+04,
                       1.20326731E+01]),
                NASA([1018.67, 3000.00],
                     [ 1.38304153E+01,  3.88527019E-02, -2.19473905E-05,
                       5.78719895E-09, -5.85097740E-13, -2.83362774E+04,
                      -4.44147388E+01])))

species(name='ipropylOOH',
        atoms='C:3 H:7 O:2',
        thermo=(NASA([10.00, 405.01],
                     [ 3.30075623E+00,  7.58672756E-02, -3.35754269E-04,
                       8.05972164E-07, -6.68864582E-10, -1.42289212E+03,
                       1.43372849E+01]),
                NASA([405.01, 3000.00],
                     [ 2.51742509E+00,  3.72760950E-02, -2.12450220E-05,
                       5.83593926E-09, -6.22110649E-13, -9.79484510E+02,
                       2.20991392E+01])))

species(name='galdoxy',
        atoms='C:4 H:7 O:2',
        thermo=(NASA([10.00, 209.62],
                     [ 3.82641108E+00,  1.84758886E-02,  3.43073800E-04,
                      -1.82817005E-06,  2.98516720E-09, -1.86270826E+04,
                       1.17972706E+01]),
                NASA([209.62, 3000.00],
                     [ 4.22049016E+00,  4.03370149E-02, -2.36129482E-05,
                       6.72979114E-09, -7.47862493E-13, -1.87081524E+04,
                       8.97211724E+00])))

species(name='galkene',
        atoms='C:4 H:8 O:1',
        thermo=(NASA([10.00, 383.47],
                     [ 3.84035604E+00,  1.20378740E-02,  1.87486319E-04,
                      -5.44759148E-07,  4.80711015E-10, -2.01023176E+04,
                       1.02570291E+01]),
                NASA([383.47, 3000.00],
                     [ 4.00413385E+00,  3.79025144E-02, -2.15435710E-05,
                       6.15213311E-09, -6.97446345E-13, -2.03176070E+04,
                       6.98052628E+00])))

species(name='CH2O',
        atoms='C:1 H:2 O:1',
        thermo=(NASA([10.00, 601.31],
                     [ 4.03190845E+00, -1.93233367E-03,  8.89743345E-06,
                       2.98105926E-09, -7.90813886E-12, -1.42276270E+04,
                       3.47574660E+00]),
                NASA([601.31, 3000.00],
                     [ 1.40134195E+00,  9.48858016E-03, -4.43088317E-06,
                       9.48452194E-10, -7.43790219E-14, -1.38013869E+04,
                       1.57423780E+01])))

species(name='O2',
        atoms='O:2',
        thermo=(NASA([10.00, 605.96],
                     [ 3.50743498E+00, -4.43860349E-04,  1.45938058E-06,
                       1.61509333E-09, -2.32050052E-12, -9.24756224E+02,
                       4.72183634E+00]),
                NASA([605.96, 3000.00],
                     [ 2.87462882E+00,  2.17840991E-03, -1.18262921E-06,
                       2.86910493E-10, -2.53297146E-14, -8.19517838E+02,
                       7.69331810E+00])))

species(name='gRO2',
        atoms='C:4 H:9 O:3',
        thermo=(NASA([10.00, 177.33],
                     [ 3.70632176E+00,  3.49733664E-02,  4.64036392E-04,
                      -3.18637835E-06,  6.38178607E-09, -3.03037843E+04,
                       1.24459269E+01]),
                NASA([177.33, 3000.00],
                     [ 4.82062697E+00,  5.17179689E-02, -3.18386818E-05,
                       9.52247045E-09, -1.10180288E-12, -3.04091549E+04,
                       7.14082953E+00])))

species(name='gQOOHg',
        atoms='C:4 H:9 O:3',
        thermo=(NASA([10.00, 475.03],
                     [ 3.42273720E+00,  4.98344215E-02,  6.47820920E-05,
                      -2.49842966E-07,  1.98636537E-10, -2.24376039E+04,
                       1.41578583E+01]),
                NASA([475.03, 3000.00],
                     [ 5.94049074E+00,  5.53778585E-02, -3.71708255E-05,
                       1.17540477E-08, -1.40812095E-12, -2.29785582E+04,
                       7.09201218E-01])))

species(name='gR',
        atoms='C:4 H:9 O:1',
        thermo=(NASA([10.00, 638.24],
                     [ 3.37074633E+00,  5.17529751E-02, -6.54872940E-05,
                       6.88084237E-08, -3.21569794E-11, -1.10248661E+04,
                       1.14339669E+01]),
                NASA([638.24, 3000.00],
                     [ 3.99410860E+00,  4.06314915E-02, -2.23932510E-05,
                       6.08356263E-09, -6.49884708E-13, -1.09574914E+04,
                       9.85769960E+00])))

species(name='galdol',
        atoms='C:4 H:8 O:2',
        thermo=(NASA([10.00, 506.68],
                     [ 3.85380874E+00,  9.21272695E-03,  1.86712348E-04,
                      -3.96417049E-07,  2.55528268E-10, -4.56540561E+04,
                       1.24312743E+01]),
                NASA([506.68, 3000.00],
                     [ 1.49710213E+00,  5.65979142E-02, -3.87709084E-05,
                       1.23682052E-08, -1.48287964E-12, -4.57846655E+04,
                       1.85531759E+01])))

species(name='monosub_c4ether',
        atoms='C:4 H:8 O:2',
        thermo=(NASA([10.00, 380.36],
                     [ 3.47743996E+00,  6.08051311E-02, -2.78518945E-04,
                       8.23182713E-07, -7.87158031E-10, -3.14353762E+04,
                       1.06415154E+01]),
                NASA([380.36, 3000.00],
                     [-1.09346901E+00,  5.35985968E-02, -3.21081420E-05,
                       9.20818293E-09, -1.01830294E-12, -3.06878162E+04,
                       3.35312368E+01])))

species(name='HO2',
        atoms='H:1 O:2',
        thermo=(NASA([10.00, 891.11],
                     [ 4.02887004E+00, -1.75769289E-03,  1.08726004E-05,
                      -1.13812972E-08,  3.90113097E-12,  4.95165001E+02,
                       4.69302008E+00]),
                NASA([891.11, 3000.00],
                     [ 3.06571044E+00,  4.28505005E-03, -2.19325920E-06,
                       5.58882699E-10, -5.61246669E-14,  5.98557610E+02,
                       8.84564156E+00])))

species(name='gQOOH[O]',
        atoms='C:4 H:9 O:3',
        thermo=(NASA([10.00, 535.23],
                     [ 3.83107445E+00,  1.02302002E-02,  2.29377261E-04,
                      -4.59095575E-07,  2.77765018E-10, -1.76940279E+04,
                       1.41034859E+01]),
                NASA([535.23, 3000.00],
                     [-4.19283096E-01,  7.69784620E-02, -5.57279000E-05,
                       1.81378295E-08, -2.18295635E-12, -1.77401413E+04,
                       2.72711816E+01])))

#-------------------------------------------------------------------------------
# Reaction data
#-------------------------------------------------------------------------------

# Reaction 1
chebyshev_reaction('gQOOH[O] (+ M) <=> gRO2 (+ M)',
                   Tmin=180.0, Tmax=1500.0,
                   Pmin=(0.01, 'atm'), Pmax=(98.692, 'atm'),
                   coeffs=[[ 5.09300e+00,  1.90200e+00, -7.83500e-02, -2.12600e-02, -5.11700e-03, -6.83900e-04,  3.95400e-04,  2.76700e-04],
                           [-5.81800e+00,  2.52100e-01,  3.84800e-02,  6.82700e-03,  2.50400e-03,  2.70300e-03,  5.25700e-04, -2.25200e-04],
                           [-3.10400e+00, -6.09000e-03, -4.20600e-02, -8.23900e-03,  3.49900e-04,  1.34300e-03,  6.74100e-04,  1.31200e-04],
                           [-1.53800e+00,  6.77700e-02,  1.72900e-02,  6.01700e-03,  1.86600e-03,  3.96700e-04, -2.15800e-04, -2.70800e-04],
                           [-8.05900e-01,  5.03000e-02,  3.52400e-02,  1.20300e-02,  3.61200e-03,  6.26600e-04, -1.80900e-04, -2.15500e-04],
                           [-4.42600e-01, -2.69800e-03,  2.60700e-02,  8.08200e-03,  1.50400e-03, -2.42300e-05, -1.41300e-04, -8.83900e-05],
                           [-2.40900e-01, -3.64200e-02,  1.61200e-02,  6.09500e-03,  7.23300e-04, -1.80900e-04, -1.49600e-04, -9.75600e-05],
                           [-1.25900e-01, -5.34100e-02,  5.57600e-03,  5.83500e-03,  1.51400e-03,  3.20500e-04, -8.57200e-06, -9.96200e-05],
                           [-6.07800e-02, -5.68700e-02, -5.32700e-03,  4.84100e-03,  2.23700e-03,  6.53800e-04,  2.66600e-05, -1.09800e-04],
                           [-2.42800e-02, -4.82700e-02, -1.33900e-02,  3.06400e-03,  2.58500e-03,  7.13000e-04, -5.66200e-05, -1.31900e-04]])

# Reaction 2
chebyshev_reaction('gQOOHa (+ M) <=> gRO2 (+ M)',
                   Tmin=180.0, Tmax=1500.0,
                   Pmin=(0.01, 'atm'), Pmax=(98.692, 'atm'),
                   coeffs=[[ 3.24700e+00,  9.99300e-01, -9.24000e-02,  2.29200e-02, -5.97600e-04, -6.48500e-04, -7.71600e-05, -4.97800e-05],
                           [-4.03100e+00,  9.82600e-01,  7.95800e-02, -1.63800e-02,  8.37600e-03, -7.23900e-04, -1.23800e-03,  3.27200e-04],
                           [-3.40800e+00, -1.46300e-01,  1.32400e-01,  1.96600e-02, -6.92300e-03,  8.58900e-04, -1.48000e-04, -2.05300e-04],
                           [-1.43100e+00, -3.43200e-01,  2.60900e-03,  3.41500e-02, -2.60900e-05, -2.75300e-03,  4.00000e-04,  6.28900e-05],
                           [-5.78300e-01, -6.08300e-02, -2.41800e-02,  5.24700e-04,  5.49900e-03, -2.18600e-04, -7.74800e-04,  1.02900e-04],
                           [-2.88900e-01,  4.86000e-02,  4.59900e-02, -4.37900e-03, -3.78200e-03,  1.95000e-03,  3.99800e-05, -4.15800e-04],
                           [-1.86300e-01, -3.85600e-02,  5.22900e-02,  2.24100e-02, -3.75400e-03, -1.55300e-03,  7.32600e-04, -1.42000e-04],
                           [-1.23200e-01, -1.03600e-01, -5.26300e-03,  2.49200e-02,  7.67500e-03, -1.99000e-03, -7.87300e-04,  1.43800e-04],
                           [-6.51300e-02, -8.46200e-02, -3.63600e-02,  3.01200e-03,  9.38000e-03,  2.11100e-03, -1.15900e-03, -4.21300e-04],
                           [-2.04300e-02, -4.07200e-02, -2.47800e-02, -6.31200e-03,  1.54600e-03,  2.56400e-03,  3.83900e-04, -5.17400e-04]])

# Reaction 3
chebyshev_reaction('gQOOHg (+ M) <=> gRO2 (+ M)',
                   Tmin=180.0, Tmax=1500.0,
                   Pmin=(0.01, 'atm'), Pmax=(98.692, 'atm'),
                   coeffs=[[ 4.10000e+00,  1.10200e+00, -6.63200e-02,  1.74200e-02, -3.23700e-03, -8.30900e-04,  1.57900e-04, -4.74800e-06],
                           [-4.16300e+00,  1.32200e+00,  8.15100e-02, -1.36900e-02,  1.82000e-03, -1.60800e-03, -3.56500e-04,  2.76400e-04],
                           [-3.15800e+00,  1.69600e-01,  1.54500e-01,  1.09400e-02, -8.57100e-03,  1.63000e-04,  1.39700e-06, -1.64200e-05],
                           [-1.63800e+00, -1.97300e-01,  2.72800e-02,  3.47700e-02, -2.90200e-03, -3.01800e-03,  5.11900e-04,  1.25000e-04],
                           [-6.96600e-01, -4.56900e-02, -3.09700e-02,  8.24400e-03,  5.68700e-03, -1.60000e-03, -6.49900e-04,  2.51000e-04],
                           [-3.26300e-01,  6.78500e-02,  2.31800e-02, -6.94100e-03, -1.08900e-03,  1.40700e-03, -3.43400e-04, -2.38300e-04],
                           [-2.13500e-01,  8.13800e-03,  5.64200e-02,  1.30300e-02, -5.82900e-03, -8.72300e-04,  7.02000e-04, -1.81800e-04],
                           [-1.50700e-01, -8.07700e-02,  2.16900e-02,  2.65200e-02,  2.23200e-03, -3.00400e-03, -1.88900e-04,  2.63400e-04],
                           [-8.50600e-02, -9.67600e-02, -2.14600e-02,  1.36200e-02,  8.78400e-03, -1.99400e-04, -1.25300e-03, -2.63000e-05],
                           [-3.07200e-02, -5.92700e-02, -2.87400e-02, -2.29400e-03,  4.91700e-03,  2.41400e-03, -4.06200e-04, -5.04400e-04]])

# Reaction 4
chebyshev_reaction('gQOOHb (+ M) <=> gRO2 (+ M)',
                   Tmin=180.0, Tmax=1500.0,
                   Pmin=(0.01, 'atm'), Pmax=(98.692, 'atm'),
                   coeffs=[[ 5.52300e-01,  7.28100e-01, -1.30400e-02, -1.85900e-03,  4.09700e-04, -4.69300e-04, -7.05300e-05,  4.60300e-05],
                           [ 2.90900e+00,  1.22000e+00,  6.87100e-03, -2.70000e-03, -1.12700e-04, -8.32400e-04, -1.12600e-04,  8.07700e-05],
                           [-1.91900e+00,  6.81400e-01,  6.63800e-02,  2.34100e-03, -1.89300e-03, -6.89100e-04, -5.29900e-05,  5.75300e-05],
                           [-1.62300e+00,  1.76100e-01,  8.71400e-02,  1.11000e-02, -2.32500e-03, -7.25700e-04, -2.34600e-05,  3.60200e-05],
                           [-1.07400e+00, -9.02000e-02,  5.65500e-02,  1.65300e-02, -5.04100e-04, -7.41400e-04, -6.72400e-05,  9.93300e-06],
                           [-5.50000e-01, -1.40000e-01,  1.37600e-02,  1.36400e-02,  1.76200e-03, -3.86100e-04, -1.30700e-04, -3.81800e-05],
                           [-2.64200e-01, -9.89200e-02, -7.17800e-03,  6.64200e-03,  2.26000e-03,  1.62000e-04, -1.17100e-04, -9.77900e-05],
                           [-1.03000e-01, -5.66900e-02, -6.46700e-03,  2.86500e-03,  1.24500e-03,  3.44400e-04, -5.51900e-05, -1.29600e-04],
                           [-2.57100e-02, -3.55000e-02, -1.35900e-03,  4.01500e-03,  7.06800e-04,  4.23000e-05, -9.12000e-05, -1.20500e-04],
                           [-1.65400e-02, -2.69800e-02, -2.22600e-03,  6.29300e-03,  1.61900e-03, -2.57700e-04, -2.69900e-04, -1.03900e-04]])

# Reaction 5
chebyshev_reaction('O2 + gR (+ M) <=> gRO2 (+ M)',
                   Tmin=180.0, Tmax=1500.0,
                   Pmin=(0.01, 'atm'), Pmax=(98.692, 'atm'),
                   coeffs=[[ 9.83800e+00,  5.97000e-01, -1.27600e-01,  2.04300e-02, -3.10600e-03,  5.37100e-04, -1.52700e-04,  5.61200e-05],
                           [-1.77800e+00,  1.05400e+00, -1.91300e-01,  1.85300e-02,  4.83400e-04, -7.13900e-04,  1.47800e-04,  1.72600e-06],
                           [-1.14800e+00,  7.63800e-01, -8.00300e-02, -9.70800e-03,  5.25500e-03, -1.05500e-03,  9.43400e-05,  4.21900e-05],
                           [-7.84800e-01,  4.54600e-01,  1.40000e-02, -2.26000e-02,  3.91700e-03,  1.32100e-04, -1.63000e-04,  6.43100e-05],
                           [-5.25200e-01,  2.09200e-01,  6.15400e-02, -1.77000e-02, -7.49600e-04,  1.20700e-03, -1.36200e-04, -2.05200e-05],
                           [-3.37100e-01,  5.00900e-02,  6.76500e-02, -4.63200e-03, -4.11900e-03,  1.09500e-03,  1.73700e-04, -1.20100e-04],
                           [-2.05900e-01, -3.51800e-02,  5.05600e-02,  7.01200e-03, -4.23000e-03,  1.36800e-04,  4.02200e-04, -1.27300e-04],
                           [-1.17900e-01, -6.94100e-02,  2.66000e-02,  1.29000e-02, -1.92900e-03, -7.54000e-04,  3.13000e-04, -5.65500e-05],
                           [-6.13700e-02, -7.29000e-02,  5.27300e-03,  1.31900e-02,  9.63500e-04, -1.02600e-03, -1.73400e-05,  4.45500e-06],
                           [-2.69800e-02, -6.02800e-02, -9.58300e-03,  9.93400e-03,  3.09500e-03, -7.15300e-04, -3.58000e-04,  3.46400e-06]])
#  gRO2(+M) <=> gQOOH[O](+M)                           1.000e+00 0.000     0.000
#      TCHEB/ 180.000   1500.000 /
#      PCHEB/ 0.010     98.692   /
#      CHEB/ 10 8/
#      CHEB/ -1.243e+01   1.902e+00    -7.835e-02   -2.126e-02   -5.117e-03  /
#      CHEB/ -6.839e-04   3.954e-04    2.767e-04    7.305e+00    2.521e-01   /
#      CHEB/ 3.848e-02    6.827e-03    2.504e-03    2.703e-03    5.257e-04   /
#      CHEB/ -2.252e-04   -2.931e+00   -6.090e-03   -4.206e-02   -8.239e-03  /
#      CHEB/ 3.499e-04    1.343e-03    6.741e-04    1.312e-04    -1.413e+00  /
#      CHEB/ 6.777e-02    1.729e-02    6.017e-03    1.866e-03    3.967e-04   /
#      CHEB/ -2.158e-04   -2.708e-04   -7.522e-01   5.030e-02    3.524e-02   /
#      CHEB/ 1.203e-02    3.612e-03    6.266e-04    -1.809e-04   -2.155e-04  /
#      CHEB/ -4.236e-01   -2.698e-03   2.607e-02    8.082e-03    1.504e-03   /
#      CHEB/ -2.423e-05   -1.413e-04   -8.839e-05   -2.347e-01   -3.642e-02  /
#      CHEB/ 1.612e-02    6.095e-03    7.233e-04    -1.809e-04   -1.496e-04  /
#      CHEB/ -9.756e-05   -1.239e-01   -5.341e-02   5.576e-03    5.835e-03   /
#      CHEB/ 1.514e-03    3.205e-04    -8.572e-06   -9.962e-05   -6.032e-02  /
#      CHEB/ -5.687e-02   -5.327e-03   4.841e-03    2.237e-03    6.538e-04   /
#      CHEB/ 2.666e-05    -1.098e-04   -2.431e-02   -4.827e-02   -1.339e-02  /
#      CHEB/ 3.064e-03    2.585e-03    7.130e-04    -5.662e-05   -1.319e-04  /

# Reaction 6
chebyshev_reaction('gQOOHa (+ M) <=> gQOOH[O] (+ M)',
                   Tmin=180.0, Tmax=1500.0,
                   Pmin=(0.01, 'atm'), Pmax=(98.692, 'atm'),
                   coeffs=[[-1.18100e+01,  1.68800e+00, -4.19000e-01,  6.38300e-02, -5.03400e-04, -1.98000e-02,  7.02700e-03,  1.12200e-05],
                           [-1.36000e+00,  7.41100e-01,  2.72900e-01, -8.38800e-02,  1.97100e-02,  1.62200e-02, -9.87300e-03,  2.20600e-03],
                           [-4.38300e+00, -5.21700e-01,  6.27100e-02,  1.19500e-02, -1.68000e-02,  7.57600e-03,  2.15500e-03, -1.79700e-03],
                           [-1.71800e+00, -3.23400e-01, -4.97500e-02,  4.42000e-02,  1.47100e-03, -4.98000e-03,  1.68400e-03, -5.15100e-04],
                           [-6.56100e-01,  1.03900e-01, -3.39800e-02,  2.64100e-03,  1.35600e-02, -2.09800e-03, -1.41200e-03,  4.68900e-04],
                           [-3.36100e-01,  1.66200e-01,  5.67100e-02, -1.02300e-02, -1.68100e-03,  1.59000e-03, -6.79100e-04, -9.41600e-05],
                           [-2.27400e-01,  8.39500e-03,  6.73000e-02,  1.82100e-02, -5.19600e-03, -1.72200e-03,  4.76300e-04, -3.96800e-05],
                           [-1.52400e-01, -9.91000e-02,  5.39100e-03,  2.38400e-02,  6.73800e-03, -1.88800e-03, -8.27500e-04,  1.52000e-04],
                           [-8.07400e-02, -9.53200e-02, -3.10300e-02,  2.61600e-03,  8.96400e-03,  2.50500e-03, -1.15100e-03, -4.86000e-04],
                           [-2.57600e-02, -5.16200e-02, -2.20000e-02, -6.55400e-03,  7.92700e-04,  2.90000e-03,  4.78600e-04, -6.07300e-04]])

# Reaction 7
chebyshev_reaction('gQOOHg (+ M) <=> gQOOH[O] (+ M)',
                   Tmin=180.0, Tmax=1500.0,
                   Pmin=(0.01, 'atm'), Pmax=(98.692, 'atm'),
                   coeffs=[[-9.75800e+00,  1.55300e+00, -2.37600e-01,  5.49700e-02, -3.36400e-02, -4.74000e-03,  3.11500e-03, -2.04100e-04],
                           [-2.63900e+00,  9.91500e-01,  2.25100e-01, -6.77700e-02,  3.05900e-02,  4.91000e-04, -2.11900e-03,  1.20800e-03],
                           [-4.10200e+00, -2.17700e-01,  5.40500e-02, -7.06400e-03, -7.78800e-03,  5.92000e-03,  7.68700e-04, -5.08300e-04],
                           [-1.75100e+00, -1.91700e-01, -4.58900e-03,  3.77300e-02, -3.39000e-03, -2.55000e-03,  3.47700e-04, -3.50400e-04],
                           [-6.97500e-01,  6.47900e-02, -1.43600e-02,  1.63100e-02,  7.07400e-03, -2.28300e-03, -9.07900e-04,  2.05100e-04],
                           [-3.47400e-01,  1.29500e-01,  4.14100e-02, -4.13400e-03, -1.89300e-03,  4.87800e-04, -3.41500e-04, -7.61700e-05],
                           [-2.39600e-01,  2.58200e-02,  6.53000e-02,  1.36800e-02, -6.56000e-03, -1.71500e-03,  6.82300e-04, -6.22200e-05],
                           [-1.70400e-01, -8.25500e-02,  2.42500e-02,  2.67200e-02,  2.71400e-03, -3.19800e-03, -2.81400e-04,  3.24000e-04],
                           [-9.73800e-02, -1.03800e-01, -2.16200e-02,  1.31700e-02,  9.29200e-03,  1.31600e-05, -1.34200e-03, -1.77100e-05],
                           [-3.68300e-02, -6.44700e-02, -2.92400e-02, -2.95300e-03,  4.87000e-03,  2.62500e-03, -4.43300e-04, -5.29400e-04]])

# Reaction 8
chebyshev_reaction('gQOOHb (+ M) <=> gQOOH[O] (+ M)',
                   Tmin=180.0, Tmax=1500.0,
                   Pmin=(0.01, 'atm'), Pmax=(98.692, 'atm'),
                   coeffs=[[-1.24800e+01,  9.63100e-01,  2.77400e-02, -2.65200e-02, -2.03700e-02, -4.61500e-03,  6.01400e-04,  7.90200e-04],
                           [ 3.41300e+00,  1.08100e+00, -3.30700e-02,  1.43800e-02,  1.21000e-02,  3.20700e-03,  4.16400e-04, -1.63900e-04],
                           [-2.68100e+00,  2.93800e-01, -8.73900e-02, -2.12900e-02,  6.12600e-03,  4.45700e-03,  7.94800e-04, -2.99000e-04],
                           [-1.72400e+00,  1.77600e-01,  7.82600e-02,  5.31900e-03, -2.37600e-03, -2.80700e-04, -6.46100e-04, -4.26300e-04],
                           [-1.03700e+00,  2.16100e-02,  9.65800e-02,  2.49500e-02, -1.75100e-03, -1.63900e-03, -2.47400e-04,  3.91300e-05],
                           [-5.74500e-01, -8.42800e-02,  3.48000e-02,  1.90300e-02,  3.86100e-04, -1.33100e-03, -1.27500e-05,  1.81600e-04],
                           [-2.88400e-01, -9.09400e-02, -2.51300e-03,  8.56900e-03,  1.98300e-03, -3.19700e-04, -2.00100e-04, -6.22900e-05],
                           [-1.28700e-01, -6.16900e-02, -7.32600e-03,  3.49300e-03,  1.67500e-03,  3.56100e-04, -1.29600e-04, -1.60100e-04],
                           [-4.81500e-02, -3.87600e-02, -3.43600e-03,  3.65600e-03,  8.78700e-04,  1.19700e-04, -6.74300e-05, -1.04000e-04],
                           [-1.25500e-02, -2.72600e-02, -3.43100e-03,  5.58300e-03,  1.49100e-03, -2.79500e-04, -2.45400e-04, -7.84500e-05]])

# Reaction 9
chebyshev_reaction('O2 + gR (+ M) <=> gQOOH[O] (+ M)',
                   Tmin=180.0, Tmax=1500.0,
                   Pmin=(0.01, 'atm'), Pmax=(98.692, 'atm'),
                   coeffs=[[-2.24500e+00,  1.44100e+00,  1.71700e-01,  3.09800e-02, -3.85100e-02, -1.52200e-02, -2.71900e-03,  1.48800e-03],
                           [-2.63100e+00,  5.42700e-02, -5.61300e-01, -1.14300e-02,  3.64200e-02,  1.93100e-02,  5.62600e-03, -8.99900e-04],
                           [-1.49700e+00,  5.57800e-01, -1.77200e-01, -3.28800e-02,  6.63300e-03,  2.79300e-04, -8.28900e-04, -8.00100e-04],
                           [-8.21800e-01,  5.50300e-01,  4.49200e-02, -2.26600e-02,  5.73800e-04, -1.75600e-03, -7.78200e-04,  2.03400e-04],
                           [-5.40800e-01,  2.86800e-01,  9.94200e-02, -7.71300e-03,  4.75400e-04,  1.20100e-03, -8.13300e-05, -7.14900e-05],
                           [-3.64400e-01,  7.78000e-02,  8.27600e-02, -9.29500e-04, -4.28700e-03,  7.36500e-04,  2.51800e-04, -4.96200e-05],
                           [-2.31900e-01, -2.84400e-02,  5.46500e-02,  7.50200e-03, -4.89400e-03, -4.15100e-04,  3.21500e-04, -8.75800e-05],
                           [-1.37500e-01, -6.95100e-02,  2.73000e-02,  1.30500e-02, -1.99500e-03, -9.43000e-04,  2.75800e-04, -3.76000e-05],
                           [-7.41800e-02, -7.53300e-02,  4.51700e-03,  1.30000e-02,  1.06300e-03, -1.02000e-03,  5.96900e-06,  2.86500e-05],
                           [-3.34600e-02, -6.21600e-02, -1.03800e-02,  9.59300e-03,  3.09500e-03, -7.22900e-04, -3.50800e-04,  9.48900e-06]])
#  gRO2(+M) <=> gQOOHa(+M)                             1.000e+00 0.000     0.000
#      TCHEB/ 180.000   1500.000 /
#      PCHEB/ 0.010     98.692   /
#      CHEB/ 10 8/
#      CHEB/ -4.554e+00   9.993e-01    -9.240e-02   2.292e-02    -5.976e-04  /
#      CHEB/ -6.485e-04   -7.716e-05   -4.978e-05   2.076e+00    9.826e-01   /
#      CHEB/ 7.958e-02    -1.638e-02   8.376e-03    -7.239e-04   -1.238e-03  /
#      CHEB/ 3.272e-04    -3.246e+00   -1.463e-01   1.324e-01    1.966e-02   /
#      CHEB/ -6.923e-03   8.589e-04    -1.480e-04   -2.053e-04   -1.357e+00  /
#      CHEB/ -3.432e-01   2.609e-03    3.415e-02    -2.609e-05   -2.753e-03  /
#      CHEB/ 4.000e-04    6.289e-05    -5.498e-01   -6.083e-02   -2.418e-02  /
#      CHEB/ 5.247e-04    5.499e-03    -2.186e-04   -7.748e-04   1.029e-04   /
#      CHEB/ -2.791e-01   4.860e-02    4.599e-02    -4.379e-03   -3.782e-03  /
#      CHEB/ 1.950e-03    3.998e-05    -4.158e-04   -1.834e-01   -3.856e-02  /
#      CHEB/ 5.229e-02    2.241e-02    -3.754e-03   -1.553e-03   7.326e-04   /
#      CHEB/ -1.420e-04   -1.226e-01   -1.036e-01   -5.263e-03   2.492e-02   /
#      CHEB/ 7.675e-03    -1.990e-03   -7.873e-04   1.438e-04    -6.514e-02  /
#      CHEB/ -8.462e-02   -3.636e-02   3.012e-03    9.380e-03    2.111e-03   /
#      CHEB/ -1.159e-03   -4.213e-04   -2.054e-02   -4.072e-02   -2.478e-02  /
#      CHEB/ -6.312e-03   1.546e-03    2.564e-03    3.839e-04    -5.174e-04  /
#  gQOOH[O](+M) <=> gQOOHa(+M)                         1.000e+00 0.000     0.000
#      TCHEB/ 180.000   1500.000 /
#      PCHEB/ 0.010     98.692   /
#      CHEB/ 10 8/
#      CHEB/ -2.090e+00   1.688e+00    -4.190e-01   6.383e-02    -5.034e-04  /
#      CHEB/ -1.980e-02   7.027e-03    1.122e-05    -8.375e+00   7.411e-01   /
#      CHEB/ 2.729e-01    -8.388e-02   1.971e-02    1.622e-02    -9.873e-03  /
#      CHEB/ 2.206e-03    -4.395e+00   -5.217e-01   6.271e-02    1.195e-02   /
#      CHEB/ -1.680e-02   7.576e-03    2.155e-03    -1.797e-03   -1.769e+00  /
#      CHEB/ -3.234e-01   -4.975e-02   4.420e-02    1.471e-03    -4.980e-03  /
#      CHEB/ 1.684e-03    -5.151e-04   -6.812e-01   1.039e-01    -3.398e-02  /
#      CHEB/ 2.641e-03    1.356e-02    -2.098e-03   -1.412e-03   4.689e-04   /
#      CHEB/ -3.454e-01   1.662e-01    5.671e-02    -1.023e-02   -1.681e-03  /
#      CHEB/ 1.590e-03    -6.791e-04   -9.416e-05   -2.307e-01   8.395e-03   /
#      CHEB/ 6.730e-02    1.821e-02    -5.196e-03   -1.722e-03   4.763e-04   /
#      CHEB/ -3.968e-05   -1.537e-01   -9.910e-02   5.391e-03    2.384e-02   /
#      CHEB/ 6.738e-03    -1.888e-03   -8.275e-04   1.520e-04    -8.120e-02  /
#      CHEB/ -9.532e-02   -3.103e-02   2.616e-03    8.964e-03    2.505e-03   /