units(length='cm', time='s', quantity='mol', act_energy='kcal/mol')

ideal_gas(name='gas',
          elements="H D T C Ci O Oi N Ne Ar He Si S F Cl Br I X",
          species="""aOOHbalkene      OH               ibutanal
                     aR               performic_acid   disub_c4ether
                     aQOOHb           H                aadduct
                     trisub_epoxy     ibutenol         aQOOH[O]
                     ipropyl          aRO2             O2
                     formic_acid      propene          aQOOHg
                     ibut_peroxyacid  HO2              CH3""",
          reactions='all',
          initial_state=state(temperature=300.0, pressure=OneAtm))

#-------------------------------------------------------------------------------
# Element data
#-------------------------------------------------------------------------------

element(symbol='Ci', atomic_mass=13.003)
element(symbol='D', atomic_mass=2.014)
element(symbol='Oi', atomic_mass=18.0)
element(symbol='T', atomic_mass=3.016)
element(symbol='X', atomic_mass=195.083)
#-------------------------------------------------------------------------------
# Species data
#-------------------------------------------------------------------------------

species(name='aOOHbalkene',
        atoms='C:3 H:6 O:3',
        thermo=(NASA([10.00, 497.41],
                     [ 3.76691735E+00,  1.51417956E-02,  1.85499431E-04,
                      -4.61303214E-07,  3.27678941E-10, -3.13926846E+04,
                       1.09903968E+01]),
                NASA([497.41, 3000.00],
                     [ 6.20882781E+00,  4.08866173E-02, -2.89934946E-05,
                       9.60428979E-09, -1.19355432E-12, -3.21970140E+04,
                      -4.72842811E+00])))

species(name='OH',
        atoms='H:1 O:1',
        thermo=(NASA([10.00, 984.14],
                     [ 3.49686242E+00,  1.83973160E-04, -9.97634499E-07,
                       1.56942783E-09, -6.10128175E-13,  3.41673934E+03,
                       1.48093120E+00]),
                NASA([984.14, 3000.00],
                     [ 3.45221464E+00, -2.95124034E-04,  7.39418622E-07,
                      -2.89309866E-10,  3.53041498E-14,  3.45751599E+03,
                       1.85813897E+00])))

species(name='ibutanal',
        atoms='C:4 H:8 O:1',
        thermo=(NASA([10.00, 683.88],
                     [ 3.57157346E+00,  3.36936906E-02, -1.78475021E-05,
                       1.31946716E-08, -7.58008388E-12, -2.82119905E+04,
                       1.05595084E+01]),
                NASA([683.88, 3000.00],
                     [ 1.29043622E+00,  4.14804229E-02, -2.27411206E-05,
                       6.08619500E-09, -6.38995128E-13, -2.77700714E+04,
                       2.16477430E+01])))

species(name='aR',
        atoms='C:4 H:9 O:1',
        thermo=(NASA([10.00, 455.22],
                     [ 3.59625500E+00,  3.38947981E-02,  7.37257079E-06,
                      -3.99275335E-08,  2.49019944E-11, -1.46345851E+04,
                       1.18269265E+01]),
                NASA([455.22, 3000.00],
                     [ 2.49586309E+00,  4.35639890E-02, -2.44887770E-05,
                       6.73363769E-09, -7.23862433E-13, -1.45344019E+04,
                       1.62696907E+01])))

species(name='performic_acid',
        atoms='C:1 H:2 O:3',
        thermo=(NASA([10.00, 590.95],
                     [ 3.92633851E+00,  4.24517168E-03,  6.71106764E-05,
                      -1.36545385E-07,  8.03337864E-11, -3.63028176E+04,
                       8.06485813E+00]),
                NASA([590.95, 3000.00],
                     [ 4.39992934E+00,  1.85411415E-02, -1.36005501E-05,
                       4.62292431E-09, -5.88463603E-13, -3.66643888E+04,
                       3.44353230E+00])))

species(name='disub_c4ether',
        atoms='C:4 H:8 O:2',
        thermo=(NASA([10.00, 413.50],
                     [ 3.78241323E+00,  1.89501763E-02,  8.65302396E-05,
                      -1.80580575E-07,  1.13656264E-10, -3.97459670E+04,
                       1.09982450E+01]),
                NASA([413.50, 3000.00],
                     [ 4.29420885E-01,  5.13851903E-02, -3.11292293E-05,
                       9.11498284E-09, -1.03192718E-12, -3.94686726E+04,
                       2.42134976E+01])))

species(name='aQOOHb',
        atoms='C:4 H:9 O:3',
        thermo=(NASA([10.00, 412.78],
                     [ 3.15498836E+00,  8.55068303E-02, -2.35307993E-04,
                       4.71983261E-07, -3.62709267E-10, -2.94484405E+04,
                       1.52522123E+01]),
                NASA([412.78, 3000.00],
                     [ 4.18099845E+00,  5.26168288E-02, -3.23998410E-05,
                       9.59389339E-09, -1.09464519E-12, -2.93376456E+04,
                       1.35782328E+01])))

species(name='H',
        atoms='H:1',
        thermo=(NASA([10.00, 794.01],
                     [ 2.50000000E+00,  1.99051163E-15, -1.19089508E-17,
                       2.10805655E-20, -1.11017699E-23,  2.54725594E+04,
                      -4.61279342E-01]),
                NASA([794.01, 3000.00],
                     [ 2.50000000E+00,  1.52667235E-14, -1.58445285E-17,
                       6.63088600E-21, -9.62111674E-25,  2.54725594E+04,
                      -4.61279342E-01])))

species(name='aadduct',
        atoms='C:4 H:9 O:3',
        thermo=(NASA([10.00, 449.84],
                     [ 3.06901904E+00,  9.20724491E-02, -2.68085092E-04,
                       5.15249897E-07, -3.68046586E-10, -3.27561146E+04,
                       1.46591735E+01]),
                NASA([449.84, 3000.00],
                     [ 4.11210745E+00,  5.16955724E-02, -2.97401041E-05,
                       8.32758939E-09, -9.08861448E-13, -3.25352736E+04,
                       1.39578825E+01])))

species(name='trisub_epoxy',
        atoms='C:4 H:8 O:2',
        thermo=(NASA([10.00, 209.19],
                     [ 3.75295042E+00,  2.37546930E-02,  1.26610110E-04,
                      -4.78364365E-07,  5.79468168E-10, -4.02912031E+04,
                       1.12739684E+01]),
                NASA([209.19, 3000.00],
                     [ 2.64185254E+00,  4.50006531E-02, -2.57361066E-05,
                       7.15266054E-09, -7.72980731E-13, -4.02447176E+04,
                       1.48960343E+01])))

species(name='ibutenol',
        atoms='C:4 H:8 O:1',
        thermo=(NASA([10.00, 135.97],
                     [ 3.95714996E+00,  5.72646980E-03,  4.63611760E-04,
                      -3.04137514E-06,  6.85019471E-09, -2.53024728E+04,
                       8.21931848E+00]),
                NASA([135.97, 3000.00],
                     [ 3.32467612E+00,  3.69033556E-02, -1.89960416E-05,
                       4.73417677E-09, -4.59705291E-13, -2.52968942E+04,
                       9.58133237E+00])))

species(name='aQOOH[O]',
        atoms='C:4 H:9 O:3',
        thermo=(NASA([10.00, 488.36],
                     [ 3.54559533E+00,  3.89536133E-02,  8.47689703E-05,
                      -2.45147486E-07,  1.76157259E-10, -2.42161766E+04,
                       1.34685910E+01]),
                NASA([488.36, 3000.00],
                     [ 3.94214913E+00,  5.71928314E-02, -3.72516212E-05,
                       1.15209013E-08, -1.35808341E-12, -2.45111375E+04,
                       9.21628964E+00])))

species(name='ipropyl',
        atoms='C:3 H:7',
        thermo=(NASA([10.00, 421.76],
                     [ 3.73943775E+00,  3.10070157E-02, -1.51196908E-04,
                       4.35367329E-07, -3.85565052E-10,  9.49213457E+03,
                       7.79448918E+00]),
                NASA([421.76, 3000.00],
                     [-4.74526725E-01,  3.20862468E-02, -1.67340747E-05,
                       4.21365136E-09, -4.13155573E-13,  1.01934458E+04,
                       2.85865912E+01])))

species(name='aRO2',
        atoms='C:4 H:9 O:3',
        thermo=(NASA([10.00, 670.36],
                     [ 3.45405325E+00,  4.74751311E-02,  9.77507759E-06,
                      -6.31019603E-08,  3.75500067E-11, -3.14329867E+04,
                       1.39284976E+01]),
                NASA([670.36, 3000.00],
                     [ 5.04137652E+00,  5.19952978E-02, -3.16472789E-05,
                       9.22798587E-09, -1.03598915E-12, -3.19601793E+04,
                       4.56056770E+00])))

species(name='O2',
        atoms='O:2',
        thermo=(NASA([10.00, 605.96],
                     [ 3.50743498E+00, -4.43860349E-04,  1.45938058E-06,
                       1.61509333E-09, -2.32050052E-12, -9.24756224E+02,
                       4.72183634E+00]),
                NASA([605.96, 3000.00],
                     [ 2.87462882E+00,  2.17840991E-03, -1.18262921E-06,
                       2.86910493E-10, -2.53297146E-14, -8.19517838E+02,
                       7.69331810E+00])))

species(name='formic_acid',
        atoms='C:1 H:2 O:2',
        thermo=(NASA([10.00, 741.38],
                     [ 4.06855785E+00, -4.74562133E-03,  4.71797900E-05,
                      -6.07490052E-08,  2.51286794E-11, -4.66880837E+04,
                       6.53681035E+00]),
                NASA([741.38, 3000.00],
                     [ 1.13645847E+00,  1.74953124E-02, -1.08112403E-05,
                       3.08075326E-09, -3.34892658E-13, -4.64297918E+04,
                       1.86149484E+01])))

species(name='propene',
        atoms='C:3 H:6',
        thermo=(NASA([10.00, 519.53],
                     [ 3.98723879E+00,  4.72040503E-04,  6.51776229E-05,
                      -9.89891002E-08,  4.91141123E-11,  6.70059117E+02,
                       6.98071210E+00]),
                NASA([519.53, 3000.00],
                     [ 3.79893331E-01,  2.82457690E-02, -1.50108430E-05,
                       3.90894069E-09, -4.00521928E-13,  1.04488646E+03,
                       2.20218922E+01])))

species(name='aQOOHg',
        atoms='C:4 H:9 O:3',
        thermo=(NASA([10.00, 455.48],
                     [ 3.62522127E+00,  2.83222320E-02,  2.08527447E-04,
                      -5.67427418E-07,  4.35169138E-10, -2.79918552E+04,
                       1.26617758E+01]),
                NASA([455.48, 3000.00],
                     [ 5.13914202E+00,  5.96270859E-02, -4.14435328E-05,
                       1.34202375E-08, -1.63474553E-12, -2.85924116E+04,
                       1.46991116E+00])))

species(name='ibut_peroxyacid',
        atoms='C:4 H:8 O:3',
        thermo=(NASA([10.00, 1386.21],
                     [ 3.50995385E+00,  4.78670384E-02, -2.40781384E-05,
                       3.71046938E-09,  3.85442115E-13, -4.97893725E+04,
                       1.22017268E+01]),
                NASA([1386.21, 3000.00],
                     [ 1.24543146E+01,  3.02396862E-02, -1.38577031E-05,
                       3.05328904E-09, -2.63982457E-13, -5.30552558E+04,
                      -3.67061828E+01])))

species(name='HO2',
        atoms='H:1 O:2',
        thermo=(NASA([10.00, 891.11],
                     [ 4.02887004E+00, -1.75769289E-03,  1.08726004E-05,
                      -1.13812972E-08,  3.90113097E-12,  4.95165001E+02,
                       4.69302008E+00]),
                NASA([891.11, 3000.00],
                     [ 3.06571044E+00,  4.28505005E-03, -2.19325920E-06,
                       5.58882699E-10, -5.61246669E-14,  5.98557610E+02,
                       8.84564156E+00])))

species(name='CH3',
        atoms='C:1 H:3',
        thermo=(NASA([10.00, 616.77],
                     [ 3.98929952E+00,  5.45150461E-04,  9.01320092E-06,
                      -1.08320497E-08,  4.38985879E-12,  1.65859883E+04,
                       2.22446886E-01]),
                NASA([616.77, 3000.00],
                     [ 3.35928237E+00,  4.63117126E-03, -9.24365433E-07,
                      -9.02514624E-11,  3.56905106E-14,  1.66637014E+04,
                       2.95743732E+00])))

#-------------------------------------------------------------------------------
# Reaction data
#-------------------------------------------------------------------------------

# Reaction 1
chebyshev_reaction('aQOOH[O] (+ M) <=> aQOOHb (+ M)',
                   Tmin=180.0, Tmax=1500.0,
                   Pmin=(0.01, 'atm'), Pmax=(98.692, 'atm'),
                   coeffs=[[-2.64500e+00,  2.22800e+00, -8.19400e-02, -1.96800e-02, -8.55600e-03, -1.68100e-03,  3.35100e-04,  3.71700e-04],
                           [-1.57100e+00,  1.19000e+00,  1.30100e-01,  8.77100e-02,  1.66300e-02, -1.54200e-03, -1.80400e-03, -6.15200e-04],
                           [-2.45600e+00, -5.10400e-02, -1.19900e-01,  3.78500e-03,  1.18700e-02,  3.80700e-03,  1.13800e-03,  5.26100e-05],
                           [-1.34300e+00, -1.28100e-01, -7.66600e-02, -1.58100e-02,  1.63100e-03,  1.31900e-03,  5.65400e-04,  1.21200e-04],
                           [-7.06100e-01, -8.86800e-02, -2.46900e-02, -7.04200e-03, -1.79900e-03,  5.63600e-04,  7.83700e-05,  5.94100e-05],
                           [-3.58500e-01, -6.29100e-02, -1.10600e-02, -6.07200e-03, -1.16700e-03, -1.35600e-04,  2.14700e-04,  2.28900e-05],
                           [-1.57200e-01, -3.04900e-02, -1.32400e-02, -4.74100e-03, -1.48900e-03, -1.81300e-04,  6.32600e-06,  1.03100e-04],
                           [-5.28800e-02, -5.19500e-03, -9.39800e-03, -6.14100e-03, -8.61700e-04, -4.16600e-04, -5.28400e-05,  4.38000e-05],
                           [-4.12200e-03,  1.46600e-02, -3.84200e-03, -3.71400e-03, -1.72600e-03, -2.34200e-04, -1.36100e-04,  1.11800e-05],
                           [ 3.80300e-03,  2.18500e-02,  5.63400e-03, -2.64700e-03, -1.08500e-03, -4.83100e-04, -3.26000e-05, -2.16000e-05]])

# Reaction 2
chebyshev_reaction('aQOOHg (+ M) <=> aQOOHb (+ M)',
                   Tmin=180.0, Tmax=1500.0,
                   Pmin=(0.01, 'atm'), Pmax=(98.692, 'atm'),
                   coeffs=[[-5.10500e+00,  1.65000e+00, -2.89700e-01, -2.14000e-02, -1.48900e-04, -1.30500e-03,  5.35500e-04,  4.86100e-04],
                           [ 2.15500e+00,  2.43500e+00,  6.93700e-02,  5.06900e-03,  1.47800e-02, -2.75600e-03, -2.32400e-03, -2.81300e-04],
                           [-2.91500e+00,  3.41500e-01,  2.34900e-01, -1.95600e-03, -1.46600e-02,  4.90300e-03,  1.97200e-03, -4.22900e-04],
                           [-2.07000e+00, -4.23800e-01,  1.44500e-01,  5.64900e-02, -1.20500e-02, -5.08300e-03,  6.03100e-04,  5.29100e-04],
                           [-1.02300e+00, -4.39400e-01, -3.88700e-02,  5.03200e-02,  1.30100e-02, -3.87700e-03, -1.97500e-03,  1.73400e-04],
                           [-4.09300e-01, -2.47900e-01, -1.09000e-01,  4.53500e-03,  1.66600e-02,  2.93900e-03, -1.38000e-03, -5.59600e-04],
                           [-1.21000e-01, -6.62100e-02, -7.95300e-02, -2.31900e-02,  4.56500e-03,  4.88200e-03,  6.17400e-04, -5.75800e-04],
                           [-5.81300e-03,  2.98800e-02, -2.53700e-02, -2.34200e-02, -5.17800e-03,  2.14000e-03,  1.50200e-03,  2.17000e-05],
                           [ 1.33300e-02,  5.44300e-02,  9.87500e-03, -9.17600e-03, -7.52500e-03, -1.24300e-03,  9.45200e-04,  5.10100e-04],
                           [ 6.43300e-03,  3.33900e-02,  1.92600e-02,  2.62500e-03, -3.66800e-03, -2.46500e-03, -1.27200e-04,  4.46100e-04]])

# Reaction 3
chebyshev_reaction('aRO2 (+ M) <=> aQOOHb (+ M)',
                   Tmin=180.0, Tmax=1500.0,
                   Pmin=(0.01, 'atm'), Pmax=(98.692, 'atm'),
                   coeffs=[[-1.05500e+01,  6.25700e+00, -6.22000e-01, -2.88100e-01,  1.19300e-01,  2.65500e-02, -2.66000e-02, -3.38400e-03],
                           [ 4.33900e+00, -1.50600e+00,  1.27400e+00,  2.54200e-01, -1.67900e-01, -2.63000e-02,  2.38500e-02,  8.37000e-06],
                           [-2.24000e+00, -5.07200e-01,  3.08400e-02,  9.92900e-02,  3.06200e-03, -1.64900e-02,  2.64300e-03,  4.63700e-03],
                           [-1.23000e+00, -3.24900e-01, -1.55200e-01, -2.10700e-02,  8.39800e-03,  4.29500e-03,  2.10900e-03,  1.32300e-03],
                           [-6.00500e-01, -1.81800e-01, -1.00700e-01, -2.58600e-02,  3.89900e-03,  5.46700e-03,  1.02900e-03, -5.84100e-04],
                           [-2.54400e-01, -9.87800e-02, -3.88600e-02, -3.34900e-03,  3.05500e-03,  1.76100e-03, -2.42000e-04, -8.39400e-04],
                           [-1.53000e-01,  1.66500e-03, -1.51300e-02, -6.51000e-03,  1.33500e-03,  1.37000e-03, -5.59500e-04, -6.97800e-04],
                           [-1.00900e-02, -2.81300e-02, -8.65200e-03,  2.20600e-04, -2.35700e-03, -1.56600e-03,  1.05500e-04,  4.25300e-04],
                           [-4.20900e-02,  4.01300e-02, -2.04200e-03, -1.01900e-02, -2.98300e-03, -1.16700e-04,  8.79600e-05,  1.83000e-04],
                           [ 4.72100e-02, -1.48100e-02,  5.49200e-03,  4.26500e-03, -3.32800e-03, -2.47900e-03,  1.71400e-04,  6.29600e-04]])

# Reaction 4
chebyshev_reaction('aadduct (+ M) <=> aQOOHb (+ M)',
                   Tmin=180.0, Tmax=1500.0,
                   Pmin=(0.01, 'atm'), Pmax=(98.692, 'atm'),
                   coeffs=[[-1.44600e+01,  4.53400e+00, -5.25200e-01, -3.51300e-01,  1.63200e-01,  2.26700e-02, -3.41100e-02,  4.46300e-03],
                           [ 5.00200e+00, -9.97300e-01,  8.70700e-01,  3.94700e-01, -2.02900e-01, -1.15100e-02,  3.08700e-02, -1.18400e-02],
                           [-2.63900e+00, -2.54700e-01, -1.77800e-01,  9.84700e-02,  3.59800e-02, -2.73200e-02,  8.13500e-03,  5.13500e-03],
                           [-1.44400e+00, -1.52300e-01, -2.49800e-01, -6.43100e-02,  3.34000e-02,  6.02700e-03, -3.02000e-03,  5.51100e-03],
                           [-6.99400e-01, -2.28000e-02, -1.27600e-01, -6.48800e-02,  4.71800e-03,  1.40500e-02, -1.62400e-03, -1.41200e-03],
                           [-2.92900e-01,  2.72500e-02, -1.77700e-02, -2.77100e-02, -8.35800e-03,  6.04300e-03,  1.14000e-03, -2.46100e-03],
                           [-1.61800e-01,  6.34100e-02,  3.82000e-02, -1.67900e-02, -1.27600e-02,  1.58600e-03,  4.17000e-04, -4.46100e-04],
                           [-3.04600e-02,  7.50200e-03,  2.94000e-02,  1.17900e-02, -1.28300e-02, -7.27900e-03,  2.12800e-03,  4.93500e-04],
                           [-5.85800e-02,  3.41300e-02,  3.01300e-02,  2.03400e-03, -3.40200e-03, -5.64900e-03, -1.77000e-03,  2.24500e-03],
                           [ 2.63400e-02, -1.56600e-02,  4.66300e-03,  2.38100e-02, -8.53300e-04, -6.09500e-03, -6.15400e-05, -5.55700e-04]])

# Reaction 5
chebyshev_reaction('O2 + aR (+ M) <=> aQOOHb (+ M)',
                   Tmin=180.0, Tmax=1500.0,
                   Pmin=(0.01, 'atm'), Pmax=(98.692, 'atm'),
                   coeffs=[[ 2.25600e+00,  3.22400e+00, -9.77700e-01,  1.80300e-01, -1.74300e-02, -1.32100e-02,  4.74500e-03, -8.72000e-04],
                           [-2.20600e+00,  1.56600e+00,  5.12700e-01, -3.17600e-01,  6.78500e-02,  1.09100e-02, -7.38000e-03,  1.57300e-03],
                           [-1.31700e+00,  3.05900e-01,  3.93600e-01, -6.17500e-02, -3.24600e-02,  1.10300e-02,  2.89300e-04, -4.96100e-04],
                           [-8.56000e-01, -1.79100e-01,  1.93600e-01,  3.45200e-02, -1.99700e-02, -1.78100e-03,  4.76700e-04,  2.54100e-04],
                           [-4.91600e-01, -2.46500e-01,  4.24800e-02,  3.99400e-02,  3.14300e-04, -2.10900e-03, -9.56900e-04, -1.67700e-04],
                           [-2.49900e-01, -1.81900e-01, -2.49800e-02,  1.71700e-02,  6.19900e-03,  9.43100e-04, -5.50700e-04, -5.74200e-04],
                           [-1.04700e-01, -9.49300e-02, -3.89000e-02, -1.29800e-03,  3.69900e-03,  1.98600e-03,  3.47900e-04, -3.78100e-04],
                           [-3.14400e-02, -2.94700e-02, -2.72200e-02, -9.20100e-03, -2.68300e-04,  1.34500e-03,  6.79400e-04, -2.90300e-05],
                           [ 2.99100e-03,  8.07300e-03, -9.88100e-03, -8.77100e-03, -2.69800e-03,  2.46900e-04,  5.41300e-04,  1.47800e-04],
                           [ 9.90100e-03,  2.16400e-02,  3.24100e-03, -4.40200e-03, -3.11600e-03, -5.99400e-04,  2.51100e-04,  1.64800e-04]])
#  aQOOHb(+M) <=> aQOOH[O](+M)                         1.000e+00 0.000     0.000
#      TCHEB/ 180.000   1500.000 /
#      PCHEB/ 0.010     98.692   /
#      CHEB/ 10 8/
#      CHEB/ -1.121e+01   2.228e+00    -8.194e-02   -1.968e-02   -8.556e-03  /
#      CHEB/ -1.681e-03   3.351e-04    3.717e-04    3.805e+00    1.190e+00   /
#      CHEB/ 1.301e-01    8.771e-02    1.663e-02    -1.542e-03   -1.804e-03  /
#      CHEB/ -6.152e-04   -2.379e+00   -5.104e-02   -1.199e-01   3.785e-03   /
#      CHEB/ 1.187e-02    3.807e-03    1.138e-03    5.261e-05    -1.297e+00  /
#      CHEB/ -1.281e-01   -7.666e-02   -1.581e-02   1.631e-03    1.319e-03   /
#      CHEB/ 5.654e-04    1.212e-04    -6.907e-01   -8.868e-02   -2.469e-02  /
#      CHEB/ -7.042e-03   -1.799e-03   5.636e-04    7.837e-05    5.941e-05   /
#      CHEB/ -3.537e-01   -6.291e-02   -1.106e-02   -6.072e-03   -1.167e-03  /
#      CHEB/ -1.356e-04   2.147e-04    2.289e-05    -1.554e-01   -3.049e-02  /
#      CHEB/ -1.324e-02   -4.741e-03   -1.489e-03   -1.813e-04   6.326e-06   /
#      CHEB/ 1.031e-04    -5.216e-02   -5.195e-03   -9.398e-03   -6.141e-03  /
#      CHEB/ -8.617e-04   -4.166e-04   -5.284e-05   4.380e-05    -3.928e-03  /
#      CHEB/ 1.466e-02    -3.842e-03   -3.714e-03   -1.726e-03   -2.342e-04  /
#      CHEB/ -1.361e-04   1.118e-05    3.810e-03    2.185e-02    5.634e-03   /
#      CHEB/ -2.647e-03   -1.085e-03   -4.831e-04   -3.260e-05   -2.160e-05  /

# Reaction 6
chebyshev_reaction('aQOOHg (+ M) <=> aQOOH[O] (+ M)',
                   Tmin=180.0, Tmax=1500.0,
                   Pmin=(0.01, 'atm'), Pmax=(98.692, 'atm'),
                   coeffs=[[-5.25800e+00,  2.12700e+00, -2.55200e-01,  1.27800e-02, -2.06100e-02,  2.03300e-03,  4.61900e-04,  4.25700e-04],
                           [ 5.92000e-02,  1.03500e+00,  1.76600e-01,  4.98400e-02,  2.42200e-02, -4.62600e-03, -1.04400e-03, -6.02000e-04],
                           [-3.76600e+00, -1.47500e-01, -1.96300e-02, -2.07200e-03,  9.80100e-03,  1.99200e-03,  5.31900e-04,  2.33000e-04],
                           [-1.90900e+00, -2.60100e-01, -5.38300e-02, -7.55200e-03, -5.87900e-04,  1.31000e-04,  4.03400e-04,  1.59600e-04],
                           [-8.43600e-01, -1.58500e-01, -6.02600e-02, -5.44700e-03,  2.11000e-04, -5.47500e-04,  1.56400e-04,  9.22700e-05],
                           [-3.14200e-01, -2.38600e-02, -5.28400e-02, -1.16600e-02, -2.77300e-04,  3.06600e-04, -1.63700e-05,  8.82400e-05],
                           [-7.57800e-02,  5.29700e-02, -1.52500e-02, -1.49900e-02, -2.73100e-03, -5.69400e-05,  1.10000e-04,  1.68900e-05],
                           [-4.77500e-04,  7.05800e-02,  1.51400e-02, -6.05900e-03, -4.84400e-03, -8.77200e-04,  9.46800e-06,  2.12900e-05],
                           [ 8.34600e-03,  3.98100e-02,  2.73500e-02,  5.39500e-03, -3.11500e-03, -1.61500e-03, -3.41000e-04,  7.92000e-05],
                           [-1.35200e-02,  1.12300e-02,  1.70300e-02,  1.02700e-02,  1.27400e-03, -1.32000e-03, -5.49800e-04, -3.09500e-05]])

# Reaction 7
chebyshev_reaction('aRO2 (+ M) <=> aQOOH[O] (+ M)',
                   Tmin=180.0, Tmax=1500.0,
                   Pmin=(0.01, 'atm'), Pmax=(98.692, 'atm'),
                   coeffs=[[-1.13500e+01,  8.53500e+00, -4.22800e-01, -6.74000e-01,  4.80700e-03,  1.34200e-01, -1.64500e-02, -2.87600e-02],
                           [ 5.74800e+00, -2.78300e+00,  5.87300e-01,  5.36900e-01, -6.26400e-02, -1.54300e-01,  4.26400e-02,  3.79700e-02],
                           [-2.71000e+00, -9.82300e-01, -2.63200e-02,  6.64500e-02, -1.75400e-02,  3.30900e-02, -1.47900e-02, -1.26700e-02],
                           [-1.39000e+00, -1.91900e-01, -1.14400e-01, -3.18000e-02,  3.18200e-02, -7.31700e-03, -7.23700e-03,  6.97200e-03],
                           [-6.29400e-01,  5.26000e-03, -2.79700e-02, -1.07800e-02,  5.78100e-03, -9.86700e-03,  7.11300e-03, -2.44600e-03],
                           [-2.77300e-01,  4.29300e-02,  6.92500e-03,  7.43000e-03, -9.41900e-03,  7.20200e-03, -3.72300e-03, -4.69100e-04],
                           [-1.25300e-01,  2.22800e-02,  2.09200e-02,  9.77500e-04, -9.64000e-04,  2.42100e-03, -1.93700e-03,  8.59400e-04],
                           [-5.03500e-02,  8.43600e-03,  4.48400e-03, -2.77000e-03,  5.91800e-03, -3.89700e-03,  2.90000e-03, -9.33100e-04],
                           [-1.92100e-02,  9.14000e-03, -1.51200e-02,  4.31600e-03,  9.54200e-04, -6.08400e-04, -5.56100e-04,  1.02100e-03],
                           [ 6.07700e-04, -1.91900e-02,  5.52400e-03,  1.00600e-03, -6.46700e-03,  4.62100e-03, -7.78600e-04, -1.44600e-03]])

# Reaction 8
chebyshev_reaction('aadduct (+ M) <=> aQOOH[O] (+ M)',
                   Tmin=180.0, Tmax=1500.0,
                   Pmin=(0.01, 'atm'), Pmax=(98.692, 'atm'),
                   coeffs=[[-1.52700e+01,  6.48300e+00, -1.10100e-01, -6.86200e-01, -4.14200e-02,  1.64700e-01, -1.48200e-02, -4.27700e-02],
                           [ 6.06700e+00, -2.41500e+00,  4.25900e-01,  6.65800e-01, -8.52900e-02, -1.67800e-01,  5.06900e-02,  3.99700e-02],
                           [-3.76600e+00, -2.62100e-01, -3.36900e-01,  8.46000e-02,  9.95700e-02, -3.68000e-02, -2.06300e-02,  1.53100e-02],
                           [-1.82200e+00, -1.29700e-01, -8.21000e-02, -7.60200e-02,  4.46000e-02,  1.91800e-02, -2.79000e-02,  2.81100e-03],
                           [-7.65900e-01, -6.82800e-02,  3.61900e-02, -1.38400e-02, -3.26500e-02,  2.38500e-02,  8.48100e-03, -1.96000e-02],
                           [-4.01800e-01,  1.54900e-01, -2.16700e-02, -1.26600e-03,  8.34700e-03, -7.66200e-03,  3.73300e-03,  3.75600e-03],
                           [-1.40800e-01,  3.92300e-02,  3.51700e-02, -9.67800e-03,  3.45100e-04,  2.79000e-03, -1.50800e-03,  1.90100e-03],
                           [-3.47900e-02, -9.62900e-03,  1.78500e-02,  6.66300e-03, -1.17300e-02,  4.46400e-03,  4.06500e-03, -4.33000e-03],
                           [-4.07800e-02,  3.90800e-02, -2.04200e-02, -3.06000e-04,  9.02100e-03, -7.00000e-03, -6.62400e-04,  4.93200e-03],
                           [-8.02500e-03, -1.13500e-02,  7.27100e-03, -2.08800e-03, -4.13600e-03,  3.16100e-03, -9.54200e-04, -1.07800e-03]])

# Reaction 9
chebyshev_reaction('O2 + aR (+ M) <=> aQOOH[O] (+ M)',
                   Tmin=180.0, Tmax=1500.0,
                   Pmin=(0.01, 'atm'), Pmax=(98.692, 'atm'),
                   coeffs=[[-4.03800e+00,  5.20900e+00,  1.82400e-01,  4.72800e-01,  1.39300e-01, -2.02800e-01, -1.02500e-01, -2.29000e-02],
                           [-1.10400e+00, -2.86000e+00,  3.11400e-01, -5.85600e-01, -6.22100e-02,  2.93600e-01,  9.74100e-02,  1.82600e-02],
                           [-9.14900e-01, -3.79600e-01, -3.61700e-01,  1.47300e-01, -1.57000e-01, -2.76000e-02,  4.48500e-02,  2.74500e-03],
                           [-6.56500e-01,  8.38600e-02, -1.08900e-01,  4.47000e-02,  5.81500e-02, -1.11000e-01, -7.45400e-03,  1.11800e-02],
                           [-3.36600e-01,  5.18200e-03,  4.92000e-02, -2.46900e-02,  5.99600e-02,  8.87200e-03, -5.43900e-02,  9.19900e-03],
                           [-1.65500e-01,  9.43800e-03,  3.81900e-03,  2.26600e-04, -3.60000e-03,  4.94600e-02, -8.93200e-03, -2.21400e-02],
                           [-6.58200e-02,  1.59100e-02, -2.32500e-02, -1.16000e-02, -3.49900e-03,  1.03800e-02,  3.00700e-02, -1.53600e-02],
                           [-1.51100e-02,  1.12300e-02, -6.31700e-03, -1.89000e-02, -1.12300e-02, -3.12900e-03,  1.28900e-02,  1.34600e-02],
                           [ 1.14000e-03,  8.10100e-03,  1.04600e-02, -1.06900e-02, -1.26800e-02, -7.40800e-03, -1.38600e-03,  1.11300e-02],
                           [-5.38400e-03,  7.72200e-03,  8.49700e-03,  9.00600e-03, -8.62500e-03, -9.12400e-03, -4.97700e-03,  1.03900e-03]])
#  aQOOHb(+M) <=> aQOOHg(+M)                           1.000e+00 0.000     0.000
#      TCHEB/ 180.000   1500.000 /
#      PCHEB/ 0.010     98.692   /
#      CHEB/ 10 8/
#      CHEB/ -8.762e+00   1.650e+00    -2.897e-01   -2.140e-02   -1.489e-04  /
#      CHEB/ -1.305e-03   5.355e-04    4.861e-04    3.827e+00    2.435e+00   /
#      CHEB/ 6.937e-02    5.069e-03    1.478e-02    -2.756e-03   -2.324e-03  /
#      CHEB/ -2.813e-04   -2.692e+00   3.415e-01    2.349e-01    -1.956e-03  /
#      CHEB/ -1.466e-02   4.903e-03    1.972e-03    -4.229e-04   -1.976e+00  /
#      CHEB/ -4.238e-01   1.445e-01    5.649e-02    -1.205e-02   -5.083e-03  /
#      CHEB/ 6.031e-04    5.291e-04    -9.951e-01   -4.394e-01   -3.887e-02  /
#      CHEB/ 5.032e-02    1.301e-02    -3.877e-03   -1.975e-03   1.734e-04   /
#      CHEB/ -4.014e-01   -2.479e-01   -1.090e-01   4.535e-03    1.666e-02   /
#      CHEB/ 2.939e-03    -1.380e-03   -5.596e-04   -1.185e-01   -6.621e-02  /
#      CHEB/ -7.953e-02   -2.319e-02   4.565e-03    4.882e-03    6.174e-04   /
#      CHEB/ -5.758e-04   -5.084e-03   2.988e-02    -2.537e-02   -2.342e-02  /
#      CHEB/ -5.178e-03   2.140e-03    1.502e-03    2.170e-05    1.335e-02   /
#      CHEB/ 5.443e-02    9.875e-03    -9.176e-03   -7.525e-03   -1.243e-03  /
#      CHEB/ 9.452e-04    5.101e-04    6.291e-03    3.339e-02    1.926e-02   /
#      CHEB/ 2.625e-03    -3.668e-03   -2.465e-03   -1.272e-04   4.461e-04   /
#  aQOOH[O](+M) <=> aQOOHg(+M)                         1.000e+00 0.000     0.000
#      TCHEB/ 180.000   1500.000 /
#      PCHEB/ 0.010     98.692   /
#      CHEB/ 10 8/
#      CHEB/ -3.526e-01   2.127e+00    -2.552e-01   1.278e-02    -2.061e-02  /
#      CHEB/ 2.033e-03    4.619e-04    4.257e-04    -3.645e+00   1.035e+00   /
#      CHEB/ 1.766e-01    4.984e-02    2.422e-02    -4.626e-03   -1.044e-03  /
#      CHEB/ -6.020e-04   -3.621e+00   -1.475e-01   -1.963e-02   -2.072e-03  /
#      CHEB/ 9.801e-03    1.992e-03    5.319e-04    2.330e-04    -1.860e+00  /
#      CHEB/ -2.601e-01   -5.383e-02   -7.552e-03   -5.879e-04   1.310e-04   /
#      CHEB/ 4.034e-04    1.596e-04    -8.308e-01   -1.585e-01   -6.026e-02  /
#      CHEB/ -5.447e-03   2.110e-04    -5.475e-04   1.564e-04    9.227e-05   /