units(length='cm', time='s', quantity='mol', act_energy='kcal/mol')

ideal_gas(name='gas',
          elements="H D T C Ci O Oi N Ne Ar He Si S F Cl Br I X",
          species="""aOOHbalkene      OH               ibutanal
                     aR               performic_acid   disub_c4ether
                     aQOOHb           H                aadduct
                     trisub_epoxy     ibutenol         aQOOH[O]
                     ipropyl          aRO2             O2
                     formic_acid      propene          aQOOHg
                     ibut_peroxyacid  HO2              CH3""",
          reactions='all',
          initial_state=state(temperature=300.0, pressure=OneAtm))

#-------------------------------------------------------------------------------
# Element data
#-------------------------------------------------------------------------------

element(symbol='Ci', atomic_mass=13.003)
element(symbol='D', atomic_mass=2.014)
element(symbol='Oi', atomic_mass=18.0)
element(symbol='T', atomic_mass=3.016)
element(symbol='X', atomic_mass=195.083)
#-------------------------------------------------------------------------------
# Species data
#-------------------------------------------------------------------------------

species(name='aOOHbalkene',
        atoms='C:3 H:6 O:3',
        thermo=(NASA([10.00, 497.41],
                     [ 3.76691735E+00,  1.51417956E-02,  1.85499431E-04,
                      -4.61303214E-07,  3.27678941E-10, -3.02801570E+04,
                       1.09903968E+01]),
                NASA([497.41, 3000.00],
                     [ 6.20882781E+00,  4.08866173E-02, -2.89934946E-05,
                       9.60428979E-09, -1.19355432E-12, -3.10844863E+04,
                      -4.72842811E+00])))

species(name='OH',
        atoms='H:1 O:1',
        thermo=(NASA([10.00, 984.14],
                     [ 3.49686242E+00,  1.83973160E-04, -9.97634499E-07,
                       1.56942783E-09, -6.10128175E-13,  3.41673934E+03,
                       1.48093120E+00]),
                NASA([984.14, 3000.00],
                     [ 3.45221464E+00, -2.95124034E-04,  7.39418622E-07,
                      -2.89309866E-10,  3.53041498E-14,  3.45751599E+03,
                       1.85813897E+00])))

species(name='ibutanal',
        atoms='C:4 H:8 O:1',
        thermo=(NASA([10.00, 683.88],
                     [ 3.57157346E+00,  3.36936906E-02, -1.78475021E-05,
                       1.31946716E-08, -7.58008388E-12, -2.67179223E+04,
                       1.05595084E+01]),
                NASA([683.88, 3000.00],
                     [ 1.29043622E+00,  4.14804229E-02, -2.27411206E-05,
                       6.08619500E-09, -6.38995128E-13, -2.62760032E+04,
                       2.16477430E+01])))

species(name='aR',
        atoms='C:4 H:9 O:1',
        thermo=(NASA([10.00, 455.22],
                     [ 3.59625500E+00,  3.38947981E-02,  7.37257079E-06,
                      -3.99275335E-08,  2.49019944E-11, -1.41114558E+04,
                       1.18269265E+01]),
                NASA([455.22, 3000.00],
                     [ 2.49586309E+00,  4.35639890E-02, -2.44887770E-05,
                       6.73363769E-09, -7.23862433E-13, -1.40112727E+04,
                       1.62696907E+01])))

species(name='performic_acid',
        atoms='C:1 H:2 O:3',
        thermo=(NASA([10.00, 590.95],
                     [ 3.92633851E+00,  4.24517168E-03,  6.71106764E-05,
                      -1.36545385E-07,  8.03337864E-11, -3.63028176E+04,
                       8.06485813E+00]),
                NASA([590.95, 3000.00],
                     [ 4.39992934E+00,  1.85411415E-02, -1.36005501E-05,
                       4.62292431E-09, -5.88463603E-13, -3.66643888E+04,
                       3.44353230E+00])))

species(name='disub_c4ether',
        atoms='C:4 H:8 O:2',
        thermo=(NASA([10.00, 413.50],
                     [ 3.78241323E+00,  1.89501763E-02,  8.65302396E-05,
                      -1.80580575E-07,  1.13656264E-10, -3.92581477E+04,
                       1.09982450E+01]),
                NASA([413.50, 3000.00],
                     [ 4.29420885E-01,  5.13851903E-02, -3.11292293E-05,
                       9.11498284E-09, -1.03192718E-12, -3.89808534E+04,
                       2.42134976E+01])))

species(name='aQOOHb',
        atoms='C:4 H:9 O:3',
        thermo=(NASA([10.00, 412.78],
                     [ 3.15498836E+00,  8.55068303E-02, -2.35307993E-04,
                       4.71983261E-07, -3.62709267E-10, -3.05831264E+04,
                       1.52522123E+01]),
                NASA([412.78, 3000.00],
                     [ 4.18099845E+00,  5.26168288E-02, -3.23998410E-05,
                       9.59389339E-09, -1.09464519E-12, -3.04723315E+04,
                       1.35782328E+01])))

species(name='H',
        atoms='H:1',
        thermo=(NASA([10.00, 794.01],
                     [ 2.50000000E+00,  1.99051163E-15, -1.19089508E-17,
                       2.10805655E-20, -1.11017699E-23,  2.54725594E+04,
                      -4.61279342E-01]),
                NASA([794.01, 3000.00],
                     [ 2.50000000E+00,  1.52667235E-14, -1.58445285E-17,
                       6.63088600E-21, -9.62111674E-25,  2.54725594E+04,
                      -4.61279342E-01])))

species(name='aadduct',
        atoms='C:4 H:9 O:3',
        thermo=(NASA([10.00, 449.84],
                     [ 3.06901904E+00,  9.20724491E-02, -2.68085092E-04,
                       5.15249897E-07, -3.68046586E-10, -3.19689094E+04,
                       1.46591735E+01]),
                NASA([449.84, 3000.00],
                     [ 4.11210745E+00,  5.16955724E-02, -2.97401041E-05,
                       8.32758939E-09, -9.08861448E-13, -3.17480685E+04,
                       1.39578825E+01])))

species(name='trisub_epoxy',
        atoms='C:4 H:8 O:2',
        thermo=(NASA([10.00, 209.19],
                     [ 3.75295042E+00,  2.37546930E-02,  1.26610110E-04,
                      -4.78364365E-07,  5.79468168E-10, -4.04850541E+04,
                       1.12739684E+01]),
                NASA([209.19, 3000.00],
                     [ 2.64185254E+00,  4.50006531E-02, -2.57361066E-05,
                       7.15266054E-09, -7.72980731E-13, -4.04385685E+04,
                       1.48960343E+01])))

species(name='ibutenol',
        atoms='C:4 H:8 O:1',
        thermo=(NASA([10.00, 135.97],
                     [ 3.95714996E+00,  5.72646980E-03,  4.63611760E-04,
                      -3.04137514E-06,  6.85019471E-09, -2.34098983E+04,
                       8.21931848E+00]),
                NASA([135.97, 3000.00],
                     [ 3.32467612E+00,  3.69033556E-02, -1.89960416E-05,
                       4.73417677E-09, -4.59705291E-13, -2.34043196E+04,
                       9.58133237E+00])))

species(name='aQOOH[O]',
        atoms='C:4 H:9 O:3',
        thermo=(NASA([10.00, 488.36],
                     [ 3.54559533E+00,  3.89536133E-02,  8.47689703E-05,
                      -2.45147486E-07,  1.76157259E-10, -2.43278076E+04,
                       1.34685910E+01]),
                NASA([488.36, 3000.00],
                     [ 3.94214913E+00,  5.71928314E-02, -3.72516212E-05,
                       1.15209013E-08, -1.35808341E-12, -2.46227686E+04,
                       9.21628964E+00])))

species(name='ipropyl',
        atoms='C:3 H:7',
        thermo=(NASA([10.00, 421.76],
                     [ 3.73943775E+00,  3.10070157E-02, -1.51196908E-04,
                       4.35367329E-07, -3.85565052E-10,  9.49213457E+03,
                       7.79448918E+00]),
                NASA([421.76, 3000.00],
                     [-4.74526725E-01,  3.20862468E-02, -1.67340747E-05,
                       4.21365136E-09, -4.13155573E-13,  1.01934458E+04,
                       2.85865912E+01])))

species(name='aRO2',
        atoms='C:4 H:9 O:3',
        thermo=(NASA([10.00, 670.36],
                     [ 3.45405325E+00,  4.74751311E-02,  9.77507759E-06,
                      -6.31019603E-08,  3.75500067E-11, -3.32373155E+04,
                       1.39284976E+01]),
                NASA([670.36, 3000.00],
                     [ 5.04137652E+00,  5.19952978E-02, -3.16472789E-05,
                       9.22798587E-09, -1.03598915E-12, -3.37645080E+04,
                       4.56056770E+00])))

species(name='O2',
        atoms='O:2',
        thermo=(NASA([10.00, 605.96],
                     [ 3.50743498E+00, -4.43860349E-04,  1.45938058E-06,
                       1.61509333E-09, -2.32050052E-12, -9.24756224E+02,
                       4.72183634E+00]),
                NASA([605.96, 3000.00],
                     [ 2.87462882E+00,  2.17840991E-03, -1.18262921E-06,
                       2.86910493E-10, -2.53297146E-14, -8.19517838E+02,
                       7.69331810E+00])))

species(name='formic_acid',
        atoms='C:1 H:2 O:2',
        thermo=(NASA([10.00, 741.38],
                     [ 4.06855785E+00, -4.74562133E-03,  4.71797900E-05,
                      -6.07490052E-08,  2.51286794E-11, -4.66880837E+04,
                       6.53681035E+00]),
                NASA([741.38, 3000.00],
                     [ 1.13645847E+00,  1.74953124E-02, -1.08112403E-05,
                       3.08075326E-09, -3.34892658E-13, -4.64297918E+04,
                       1.86149484E+01])))

species(name='propene',
        atoms='C:3 H:6',
        thermo=(NASA([10.00, 519.53],
                     [ 3.98723879E+00,  4.72040503E-04,  6.51776229E-05,
                      -9.89891002E-08,  4.91141123E-11,  2.49785898E+03,
                       6.98071210E+00]),
                NASA([519.53, 3000.00],
                     [ 3.79893331E-01,  2.82457690E-02, -1.50108430E-05,
                       3.90894069E-09, -4.00521928E-13,  2.87268632E+03,
                       2.20218922E+01])))

species(name='aQOOHg',
        atoms='C:4 H:9 O:3',
        thermo=(NASA([10.00, 455.48],
                     [ 3.62522127E+00,  2.83222320E-02,  2.08527447E-04,
                      -5.67427418E-07,  4.35169138E-10, -2.46910271E+04,
                       1.26617758E+01]),
                NASA([455.48, 3000.00],
                     [ 5.13914202E+00,  5.96270859E-02, -4.14435328E-05,
                       1.34202375E-08, -1.63474553E-12, -2.52915835E+04,
                       1.46991116E+00])))

species(name='ibut_peroxyacid',
        atoms='C:4 H:8 O:3',
        thermo=(NASA([10.00, 1386.21],
                     [ 3.50995385E+00,  4.78670384E-02, -2.40781384E-05,
                       3.71046938E-09,  3.85442115E-13, -4.77844754E+04,
                       1.22017268E+01]),
                NASA([1386.21, 3000.00],
                     [ 1.24543146E+01,  3.02396862E-02, -1.38577031E-05,
                       3.05328904E-09, -2.63982457E-13, -5.10503587E+04,
                      -3.67061828E+01])))

species(name='HO2',
        atoms='H:1 O:2',
        thermo=(NASA([10.00, 891.11],
                     [ 4.02887004E+00, -1.75769289E-03,  1.08726004E-05,
                      -1.13812972E-08,  3.90113097E-12,  4.95165001E+02,
                       4.69302008E+00]),
                NASA([891.11, 3000.00],
                     [ 3.06571044E+00,  4.28505005E-03, -2.19325920E-06,
                       5.58882699E-10, -5.61246669E-14,  5.98557610E+02,
                       8.84564156E+00])))

species(name='CH3',
        atoms='C:1 H:3',
        thermo=(NASA([10.00, 616.77],
                     [ 3.98929952E+00,  5.45150461E-04,  9.01320092E-06,
                      -1.08320497E-08,  4.38985879E-12,  1.65859883E+04,
                       2.22446886E-01]),
                NASA([616.77, 3000.00],
                     [ 3.35928237E+00,  4.63117126E-03, -9.24365433E-07,
                      -9.02514624E-11,  3.56905106E-14,  1.66637014E+04,
                       2.95743732E+00])))

#-------------------------------------------------------------------------------
# Reaction data
#-------------------------------------------------------------------------------

# Reaction 1
chebyshev_reaction('aQOOH[O] (+ M) <=> aQOOHb (+ M)',
                   Tmin=180.0, Tmax=1500.0,
                   Pmin=(0.01, 'atm'), Pmax=(98.692, 'atm'),
                   coeffs=[[ 2.47400e+00,  1.26700e+00, -2.40500e-01, -2.89600e-02,  1.27600e-02,  4.65300e-03, -5.58000e-04, -7.00500e-04],
                           [ 2.11200e+00,  1.44800e+00, -2.44400e-01, -1.52900e-02,  8.84200e-03,  3.02600e-03,  8.64300e-05, -3.63800e-04],
                           [ 6.59100e-01,  3.63600e-01,  7.93600e-03,  2.59500e-03, -3.12000e-03, -1.19300e-03,  3.85700e-04,  5.27300e-04],
                           [-3.17400e-04,  1.09200e-01,  8.74100e-02, -2.54600e-02, -2.94200e-03,  1.13700e-03, -2.87200e-04,  1.08500e-04],
                           [-1.45900e-01,  1.09600e-01,  4.47900e-02, -2.25600e-02, -8.89900e-04,  1.29200e-03, -5.33800e-04, -3.36200e-04],
                           [-5.95500e-02,  4.37100e-02,  4.35400e-03,  3.47200e-03, -3.68700e-03,  3.80700e-05,  3.49000e-04, -3.56100e-04],
                           [-5.30900e-03, -2.30100e-02,  7.45900e-03,  1.05700e-02, -5.33000e-03,  3.18400e-04,  8.00900e-04, -1.81000e-04],
                           [-1.13800e-02, -2.61200e-02,  1.11600e-02,  1.89300e-03, -9.04300e-04,  2.42800e-04,  2.40200e-04,  5.56100e-05],
                           [-1.82400e-02,  5.42500e-04, -9.42200e-04, -1.53000e-03,  2.68400e-03, -7.16600e-04, -5.67800e-05,  1.76100e-04],
                           [-4.49300e-03,  5.67000e-03, -7.05600e-03,  1.48900e-03,  1.03900e-03, -7.15800e-04,  1.54700e-04,  8.55900e-05]])

# Reaction 2
chebyshev_reaction('aQOOHg (+ M) <=> aQOOHb (+ M)',
                   Tmin=180.0, Tmax=1500.0,
                   Pmin=(0.01, 'atm'), Pmax=(98.692, 'atm'),
                   coeffs=[[ 2.49600e+00,  3.49200e-01, -5.77000e-01, -9.39100e-03,  2.53900e-02,  2.63100e-03, -2.00600e-03, -3.27700e-04],
                           [ 2.59600e+00,  1.81500e+00, -1.44900e-01, -9.74800e-02, -1.83400e-03,  1.08600e-02,  1.78700e-03, -1.29700e-03],
                           [ 2.14100e-01,  5.39700e-01,  6.82400e-02, -2.38500e-02, -1.41700e-02, -9.41300e-04,  2.09400e-03,  6.44300e-04],
                           [-1.12700e-01,  1.76100e-01,  7.02800e-02, -2.38400e-03, -5.57700e-03, -3.25900e-03, -6.10200e-06,  7.43800e-04],
                           [-1.14900e-01,  7.66500e-02,  4.70500e-02, -1.30200e-03, -9.63400e-04, -1.18800e-03, -8.86100e-04,  2.25300e-04],
                           [-6.87400e-02,  2.29200e-02,  3.01900e-02, -8.72200e-04, -1.14400e-03,  1.02100e-03, -6.18100e-04, -3.61000e-04],
                           [-4.33700e-02, -6.01100e-03,  1.09900e-02,  3.86600e-03, -1.53900e-03,  8.12700e-04,  1.28500e-04, -4.30300e-04],
                           [-2.51800e-02, -1.69000e-02,  9.53600e-04,  4.68400e-03, -6.62700e-04, -5.18700e-05,  4.17200e-04, -1.62900e-04],
                           [-1.20500e-02, -1.51300e-03, -4.73700e-03,  2.03600e-03,  5.02000e-04, -2.99500e-04,  2.29200e-04,  4.57600e-05],
                           [-5.76000e-03, -5.23200e-03, -1.14800e-03,  3.18000e-04,  3.54700e-04, -2.56500e-04,  7.57700e-05,  1.25000e-04]])

# Reaction 3
chebyshev_reaction('aRO2 (+ M) <=> aQOOHb (+ M)',
                   Tmin=180.0, Tmax=1500.0,
                   Pmin=(0.01, 'atm'), Pmax=(98.692, 'atm'),
                   coeffs=[[-8.65100e-01,  8.04200e-01, -1.87500e-01, -5.16600e-03,  7.70800e-03,  1.04400e-03, -4.85100e-04, -1.83400e-04],
                           [ 6.10800e+00,  1.27700e+00, -2.64000e-01, -1.97100e-02,  1.15600e-02,  2.25700e-03, -6.63300e-04, -3.10300e-04],
                           [ 8.23900e-01,  6.40000e-01, -7.24200e-02, -2.46900e-02,  1.97400e-03,  2.15700e-03,  1.11400e-05, -1.56900e-04],
                           [-1.93600e-02,  2.04500e-01,  2.77200e-02, -1.45200e-02, -4.08400e-03,  8.59000e-04,  4.22700e-04,  3.99900e-05],
                           [-1.81200e-01,  5.65200e-02,  3.72000e-02, -5.87000e-03, -3.02500e-03, -2.19100e-04,  1.69700e-04,  1.25700e-04],
                           [-1.29900e-01,  2.93800e-02,  2.30800e-02, -3.92300e-03, -5.02100e-04, -3.37300e-05, -2.15200e-04,  1.64900e-05],
                           [-5.14600e-02,  1.12000e-02,  1.36200e-02, -2.18200e-03, -8.24900e-05,  3.81100e-04, -2.08400e-04, -1.16800e-04],
                           [-5.95200e-03, -7.71500e-03,  7.33500e-03,  8.39100e-04, -4.94700e-04,  2.62100e-04,  4.28700e-07, -1.23700e-04],
                           [ 5.35000e-03, -1.33800e-02,  2.06800e-03,  2.33200e-03, -4.16500e-04,  2.64700e-06,  9.86100e-05, -6.26200e-05],
                           [ 2.03100e-03, -8.01200e-03, -1.05200e-03,  1.67200e-03, -4.23000e-05, -4.23300e-05,  7.63900e-05, -2.17800e-05]])

# Reaction 4
chebyshev_reaction('aadduct (+ M) <=> aQOOHb (+ M)',
                   Tmin=180.0, Tmax=1500.0,
                   Pmin=(0.01, 'atm'), Pmax=(98.692, 'atm'),
                   coeffs=[[-4.46000e+00, -5.53100e-01, -5.55100e-02, -2.40600e-02,  6.01200e-03,  2.06300e-03, -6.73500e-04, -4.23900e-05],
                           [ 3.09000e+00,  2.11800e+00, -1.22600e-01, -6.38800e-02,  2.18000e-02,  3.49600e-04, -5.60000e-04, -5.15700e-06],
                           [-2.70600e-01,  1.14600e+00, -1.80700e-01, -3.13900e-02,  1.45000e-02, -1.92500e-03,  5.69100e-04, -1.43200e-04],
                           [ 2.23900e-01,  4.86800e-01, -1.50800e-01,  1.63300e-02, -1.13400e-03, -2.20200e-03,  1.64000e-03, -5.97600e-04],
                           [ 1.90000e-01,  6.46900e-02, -5.65700e-02,  3.98300e-02, -1.38000e-02, -3.95400e-05,  1.50300e-03, -8.10700e-04],
                           [ 3.57400e-02, -1.17600e-01,  3.11400e-02,  3.16900e-02, -1.84200e-02,  3.09500e-03,  2.31900e-04, -3.04500e-04],
                           [-5.31200e-02, -1.18600e-01,  7.41800e-02,  5.47600e-03, -1.48000e-02,  6.00500e-03, -1.21900e-03, -6.46200e-05],
                           [-5.58700e-02, -4.79900e-02,  6.66800e-02, -1.88100e-02, -4.87800e-03,  6.57600e-03, -2.38200e-03,  9.53300e-05],
                           [-1.51100e-02,  9.48100e-03,  3.09600e-02, -2.80600e-02,  6.87500e-03,  3.67200e-03, -3.12900e-03,  8.81800e-04],
                           [-1.27100e-05,  2.55000e-02, -4.34800e-03, -1.94800e-02,  1.33800e-02, -1.59800e-03, -1.95500e-03,  1.30400e-03]])

# Reaction 5
chebyshev_reaction('O2 + aR (+ M) <=> aQOOHb (+ M)',
                   Tmin=180.0, Tmax=1500.0,
                   Pmin=(0.01, 'atm'), Pmax=(98.692, 'atm'),
                   coeffs=[[ 9.82200e+00,  1.81200e-01, -4.03500e-01, -3.08400e-02, -4.67800e-03,  6.54700e-03,  3.39100e-03, -5.94700e-04],
                           [-6.40500e-02,  6.87400e-01, -5.48300e-02, -2.22500e-02,  1.94700e-02, -3.62300e-03, -2.96100e-03,  4.52000e-04],
                           [ 1.03300e-01,  3.24800e-01,  4.61100e-02, -2.80300e-02,  3.22100e-03,  3.99600e-03, -2.24100e-03, -4.61300e-04],
                           [-1.26000e-02,  1.55700e-01,  6.31400e-02, -1.03200e-02, -8.46900e-03,  2.92700e-03,  5.56900e-04, -7.04200e-04],
                           [-3.69300e-02,  6.18200e-02,  3.89900e-02,  1.53900e-03, -7.44300e-03,  3.35500e-04,  1.58400e-03, -3.20500e-04],
                           [-2.98200e-02,  1.83600e-02,  1.64100e-02,  4.36300e-03, -3.29600e-03, -9.84900e-04,  1.10300e-03,  1.74700e-04],
                           [-2.36200e-02, -5.14900e-03,  1.54000e-03,  3.15700e-03,  2.23400e-05, -7.47600e-04,  3.11900e-04,  2.65800e-04],
                           [-1.55200e-02, -1.16300e-02, -3.67400e-03,  1.37600e-03,  1.07100e-03, -2.39600e-04, -1.03700e-04,  1.60300e-04],
                           [-5.52500e-03, -4.07400e-03, -1.66600e-03,  2.14600e-04,  3.77200e-04, -1.52100e-04, -1.29900e-04,  1.08100e-04],
                           [-2.54600e-03, -3.37800e-03, -1.57300e-03, -2.18900e-04,  2.19200e-04,  3.34100e-05, -8.25400e-05,  1.28800e-05]])
#  aQOOHb(+M) <=> aQOOH[O](+M)                         1.000e+00 0.000     0.000
#      TCHEB/ 180.000   1500.000 /
#      PCHEB/ 0.010     98.692   /
#      CHEB/ 10 8/
#      CHEB/ -7.472e+00   1.267e+00    -2.405e-01   -2.896e-02   1.276e-02   /
#      CHEB/ 4.653e-03    -5.580e-04   -7.005e-04   8.574e+00    1.448e+00   /
#      CHEB/ -2.444e-01   -1.529e-02   8.842e-03    3.026e-03    8.643e-05   /
#      CHEB/ -3.638e-04   7.371e-01    3.636e-01    7.936e-03    2.595e-03   /
#      CHEB/ -3.120e-03   -1.193e-03   3.857e-04    5.273e-04    4.568e-02   /
#      CHEB/ 1.092e-01    8.741e-02    -2.546e-02   -2.942e-03   1.137e-03   /
#      CHEB/ -2.872e-04   1.085e-04    -1.305e-01   1.096e-01    4.479e-02   /
#      CHEB/ -2.256e-02   -8.899e-04   1.292e-03    -5.338e-04   -3.362e-04  /
#      CHEB/ -5.478e-02   4.371e-02    4.354e-03    3.472e-03    -3.687e-03  /
#      CHEB/ 3.807e-05    3.490e-04    -3.561e-04   -3.498e-03   -2.301e-02  /
#      CHEB/ 7.459e-03    1.057e-02    -5.330e-03   3.184e-04    8.009e-04   /
#      CHEB/ -1.810e-04   -1.066e-02   -2.612e-02   1.116e-02    1.893e-03   /
#      CHEB/ -9.043e-04   2.428e-04    2.402e-04    5.561e-05    -1.805e-02  /
#      CHEB/ 5.425e-04    -9.422e-04   -1.530e-03   2.684e-03    -7.166e-04  /
#      CHEB/ -5.678e-05   1.761e-04    -4.486e-03   5.670e-03    -7.056e-03  /
#      CHEB/ 1.489e-03    1.039e-03    -7.158e-04   1.547e-04    8.559e-05   /

# Reaction 6
chebyshev_reaction('aQOOHg (+ M) <=> aQOOH[O] (+ M)',
                   Tmin=180.0, Tmax=1500.0,
                   Pmin=(0.01, 'atm'), Pmax=(98.692, 'atm'),
                   coeffs=[[ 5.18200e-01,  2.18200e+00, -6.51500e-01, -6.27200e-02,  2.74700e-02,  4.26500e-03, -1.93700e-03, -2.71300e-04],
                           [ 3.67400e+00,  1.05300e+00,  2.39300e-01, -4.95000e-02, -2.09400e-02,  7.97100e-03,  2.42400e-03, -1.18000e-03],
                           [-2.09300e-01,  2.42000e-01,  9.25700e-02, -5.77900e-03, -1.68700e-02, -3.96500e-04,  3.78500e-03,  6.57300e-04],
                           [-8.67500e-02,  8.16300e-02,  5.54700e-02,  9.06800e-03, -1.13600e-02, -5.48400e-03,  1.26100e-03,  1.34200e-03],
                           [-7.34200e-02,  6.32600e-02,  3.10200e-02,  1.01000e-02, -1.35700e-03, -3.95600e-03, -1.18500e-03,  6.63600e-04],
                           [-4.51200e-02,  1.83800e-02,  1.52200e-02,  7.10100e-03,  1.19500e-03, -9.12800e-04, -8.50900e-04, -1.33100e-04],
                           [-4.78900e-02,  4.67300e-03,  3.44000e-03,  3.78700e-03,  2.06100e-03, -6.67000e-05, -5.54000e-04, -1.65200e-04],
                           [-2.25400e-02, -1.79900e-02, -9.41600e-04,  2.92900e-03,  1.18000e-03,  1.74700e-04, -1.25900e-04, -1.56800e-04],
                           [-1.74700e-02,  3.30400e-03, -2.58400e-03, -5.15800e-04,  1.06100e-03,  3.26200e-04, -1.37700e-04, -6.29900e-05],
                           [-3.52200e-04, -1.12600e-02, -9.58600e-04,  6.61900e-04,  5.20300e-06,  1.37000e-04,  1.10200e-04, -3.99500e-05]])

# Reaction 7
chebyshev_reaction('aRO2 (+ M) <=> aQOOH[O] (+ M)',
                   Tmin=180.0, Tmax=1500.0,
                   Pmin=(0.01, 'atm'), Pmax=(98.692, 'atm'),
                   coeffs=[[-6.21200e+00,  2.96500e+00, -4.26400e-01, -6.08300e-02,  2.07200e-02,  6.09500e-03, -2.53900e-03, -6.84800e-04],
                           [ 1.16400e+01,  4.97000e-01,  1.96500e-01,  1.83300e-02, -1.59600e-02, -3.73000e-03,  1.78500e-03,  3.56700e-04],
                           [-5.60800e-01,  1.45700e-01,  4.51300e-02, -2.00700e-03, -3.18100e-03,  2.00500e-03,  1.44400e-03, -1.63300e-04],
                           [-2.55900e-01,  9.88900e-02,  1.85500e-02, -1.18600e-02, -5.84200e-03,  1.10900e-03,  1.28500e-03,  1.38000e-04],
                           [-1.25500e-01,  6.38000e-02,  1.89900e-02, -3.44100e-03, -4.69800e-03, -1.13600e-03,  3.43000e-04,  3.06900e-04],
                           [-5.57300e-02,  2.29400e-02,  1.25300e-02,  2.73700e-03, -1.44900e-03, -1.22300e-03, -1.68300e-04,  1.49300e-04],
                           [-2.55500e-02, -7.85900e-04,  7.44200e-03,  5.01700e-03,  5.03400e-06, -1.11200e-03, -2.39800e-04,  1.46700e-04],
                           [-2.67800e-03, -1.44600e-02,  1.10500e-03,  4.34400e-03,  1.02800e-03, -6.06300e-04, -2.80700e-04,  5.78400e-05],
                           [-8.15800e-03, -2.78500e-03,  1.59900e-04,  1.20300e-03,  6.52200e-04,  6.45900e-06, -1.49000e-04, -4.67800e-05],
                           [ 2.66400e-03, -6.81200e-03, -2.09100e-03,  7.11100e-04,  8.09000e-04,  1.02700e-04, -1.40300e-04, -4.53200e-05]])

# Reaction 8
chebyshev_reaction('aadduct (+ M) <=> aQOOH[O] (+ M)',
                   Tmin=180.0, Tmax=1500.0,
                   Pmin=(0.01, 'atm'), Pmax=(98.692, 'atm'),
                   coeffs=[[-1.14300e+01,  2.94800e+00, -4.29800e-01, -5.94100e-02,  2.12800e-02,  5.88000e-03, -2.60400e-03, -6.25900e-04],
                           [ 9.63700e+00,  5.06600e-01,  2.01100e-01,  1.87600e-02, -1.67400e-02, -4.05900e-03,  1.84200e-03,  4.24200e-04],
                           [-6.24300e-01,  1.61200e-01,  4.98900e-02, -1.92900e-03, -3.30400e-03,  2.10200e-03,  1.39900e-03, -2.40700e-04],
                           [-1.20600e-01,  1.06700e-01,  1.98200e-02, -1.22600e-02, -5.61300e-03,  1.37000e-03,  1.26100e-03,  7.25900e-05],
                           [-1.07100e-02,  6.56200e-02,  1.89300e-02, -3.68500e-03, -4.62200e-03, -1.06600e-03,  3.38000e-04,  3.06900e-04],
                           [ 5.46500e-03,  2.20000e-02,  1.26300e-02,  2.99400e-03, -1.46100e-03, -1.31300e-03, -1.85600e-04,  1.68100e-04],
                           [-1.73700e-02, -2.28900e-03,  7.79500e-03,  5.46100e-03, -2.47100e-05, -1.21000e-03, -2.42300e-04,  1.59200e-04],
                           [-1.77200e-02, -1.54800e-02,  1.42500e-03,  4.69500e-03,  1.03500e-03, -6.51700e-04, -2.78800e-04,  5.93400e-05],
                           [-1.33700e-02, -3.21500e-03,  1.82500e-04,  1.31700e-03,  7.01700e-04,  1.87500e-05, -1.49700e-04, -5.15100e-05],
                           [-4.42400e-03, -6.95800e-03, -2.24500e-03,  7.03800e-04,  8.73600e-04,  1.28900e-04, -1.47300e-04, -4.99600e-05]])

# Reaction 9
chebyshev_reaction('O2 + aR (+ M) <=> aQOOH[O] (+ M)',
                   Tmin=180.0, Tmax=1500.0,
                   Pmin=(0.01, 'atm'), Pmax=(98.692, 'atm'),
                   coeffs=[[ 8.78300e+00,  1.59400e+00, -2.23800e-01, -7.57200e-02, -8.33500e-03,  5.47100e-03,  2.48600e-03, -2.47700e-04],
                           [-2.48300e-01,  1.41600e-01,  7.96600e-02,  2.79400e-02,  3.33900e-03, -2.12300e-03, -1.03700e-03,  1.28300e-04],
                           [ 1.07000e-01,  8.31300e-02,  4.24600e-02,  1.11300e-02, -1.29600e-03, -2.31800e-03, -6.81100e-04,  1.53900e-04],
                           [ 1.93600e-02,  7.65600e-02,  3.59400e-02,  6.75400e-03, -2.84300e-03, -2.20500e-03, -2.87700e-04,  2.80600e-04],
                           [-2.03600e-02,  4.38300e-02,  2.14100e-02,  4.99000e-03, -8.49300e-04, -9.78900e-04, -1.69100e-04,  9.60900e-05],
                           [-1.96800e-02,  1.44700e-02,  7.94300e-03,  2.67100e-03,  2.76900e-04, -2.21200e-04, -1.20200e-04, -1.49500e-05],
                           [-2.28600e-02, -5.75600e-03, -8.51300e-04,  1.63900e-03,  1.36100e-03,  3.53800e-04, -1.29800e-04, -1.26300e-04],
                           [-1.09400e-02, -1.32800e-02, -4.91400e-03,  3.13900e-04,  1.22900e-03,  4.48600e-04, -8.59400e-05, -1.23700e-04],
                           [-6.79300e-03, -4.51300e-03, -1.77700e-03, -1.17100e-05,  3.73700e-04,  1.76900e-04,  1.04900e-05, -2.16500e-05],
                           [-1.73500e-05, -4.31200e-03, -2.17800e-03, -5.35100e-04,  1.04800e-04,  1.37900e-04,  3.63000e-05, -1.17300e-05]])
#  aQOOHb(+M) <=> aQOOHg(+M)                           1.000e+00 0.000     0.000
#      TCHEB/ 180.000   1500.000 /
#      PCHEB/ 0.010     98.692   /
#      CHEB/ 10 8/
#      CHEB/ -7.154e+00   3.492e-01    -5.770e-01   -9.391e-03   2.539e-02   /
#      CHEB/ 2.631e-03    -2.006e-03   -3.277e-04   8.978e+00    1.815e+00   /
#      CHEB/ -1.449e-01   -9.748e-02   -1.834e-03   1.086e-02    1.787e-03   /
#      CHEB/ -1.297e-03   4.373e-01    5.397e-01    6.824e-02    -2.385e-02  /
#      CHEB/ -1.417e-02   -9.413e-04   2.094e-03    6.443e-04    -1.857e-02  /
#      CHEB/ 1.761e-01    7.028e-02    -2.384e-03   -5.577e-03   -3.259e-03  /
#      CHEB/ -6.102e-06   7.438e-04    -8.668e-02   7.665e-02    4.705e-02   /
#      CHEB/ -1.302e-03   -9.634e-04   -1.188e-03   -8.861e-04   2.253e-04   /
#      CHEB/ -6.087e-02   2.292e-02    3.019e-02    -8.722e-04   -1.144e-03  /
#      CHEB/ 1.021e-03    -6.181e-04   -3.610e-04   -4.086e-02   -6.011e-03  /
#      CHEB/ 1.099e-02    3.866e-03    -1.539e-03   8.127e-04    1.285e-04   /
#      CHEB/ -4.303e-04   -2.445e-02   -1.690e-02   9.536e-04    4.684e-03   /
#      CHEB/ -6.627e-04   -5.187e-05   4.172e-04    -1.629e-04   -1.202e-02  /
#      CHEB/ -1.513e-03   -4.737e-03   2.036e-03    5.020e-04    -2.995e-04  /
#      CHEB/ 2.292e-04    4.576e-05    -5.902e-03   -5.232e-03   -1.148e-03  /
#      CHEB/ 3.180e-04    3.547e-04    -2.565e-04   7.577e-05    1.250e-04   /
#  aQOOH[O](+M) <=> aQOOHg(+M)                         1.000e+00 0.000     0.000
#      TCHEB/ 180.000   1500.000 /
#      PCHEB/ 0.010     98.692   /
#      CHEB/ 10 8/
#      CHEB/ 8.130e-01    2.182e+00    -6.515e-01   -6.272e-02   2.747e-02   /
#      CHEB/ 4.265e-03    -1.937e-03   -2.713e-04   3.592e+00    1.053e+00   /
#      CHEB/ 2.393e-01    -4.950e-02   -2.094e-02   7.971e-03    2.424e-03   /
#      CHEB/ -1.180e-03   -6.402e-02   2.420e-01    9.257e-02    -5.779e-03  /
#      CHEB/ -1.687e-02   -3.965e-04   3.785e-03    6.573e-04    -3.861e-02  /
#      CHEB/ 8.163e-02    5.547e-02    9.068e-03    -1.136e-02   -5.484e-03  /
#      CHEB/ 1.261e-03    1.342e-03    -6.059e-02   6.326e-02    3.102e-02   /
#      CHEB/ 1.010e-02    -1.357e-03   -3.956e-03   -1.185e-03   6.636e-04   /