units(length='cm', time='s', quantity='mol', act_energy='kcal/mol')

ideal_gas(name='gas',
          elements="H D T C Ci O Oi N Ne Ar He Si S F Cl Br I X",
          species="""aOOHbalkene      OH               ibutanal
                     aR               performic_acid   disub_c4ether
                     aQOOHb           H                aadduct
                     trisub_epoxy     ibutenol         aQOOH[O]
                     ipropyl          aRO2             O2
                     formic_acid      propene          aQOOHg
                     ibut_peroxyacid  HO2              CH3""",
          reactions='all',
          initial_state=state(temperature=300.0, pressure=OneAtm))

#-------------------------------------------------------------------------------
# Element data
#-------------------------------------------------------------------------------

element(symbol='Ci', atomic_mass=13.003)
element(symbol='D', atomic_mass=2.014)
element(symbol='Oi', atomic_mass=18.0)
element(symbol='T', atomic_mass=3.016)
element(symbol='X', atomic_mass=195.083)
#-------------------------------------------------------------------------------
# Species data
#-------------------------------------------------------------------------------

species(name='aOOHbalkene',
        atoms='C:3 H:6 O:3',
        thermo=(NASA([10.00, 497.41],
                     [ 3.76691735E+00,  1.51417956E-02,  1.85499431E-04,
                      -4.61303214E-07,  3.27678941E-10, -3.11656000E+04,
                       1.09903968E+01]),
                NASA([497.41, 3000.00],
                     [ 6.20882781E+00,  4.08866173E-02, -2.89934946E-05,
                       9.60428979E-09, -1.19355432E-12, -3.19699293E+04,
                      -4.72842811E+00])))

species(name='OH',
        atoms='H:1 O:1',
        thermo=(NASA([10.00, 984.14],
                     [ 3.49686242E+00,  1.83973160E-04, -9.97634499E-07,
                       1.56942783E-09, -6.10128175E-13,  3.41673934E+03,
                       1.48093120E+00]),
                NASA([984.14, 3000.00],
                     [ 3.45221464E+00, -2.95124034E-04,  7.39418622E-07,
                      -2.89309866E-10,  3.53041498E-14,  3.45751599E+03,
                       1.85813897E+00])))

species(name='ibutanal',
        atoms='C:4 H:8 O:1',
        thermo=(NASA([10.00, 683.88],
                     [ 3.57157346E+00,  3.36936906E-02, -1.78475021E-05,
                       1.31946716E-08, -7.58008388E-12, -2.74067954E+04,
                       1.05595084E+01]),
                NASA([683.88, 3000.00],
                     [ 1.29043622E+00,  4.14804229E-02, -2.27411206E-05,
                       6.08619500E-09, -6.38995128E-13, -2.69648762E+04,
                       2.16477430E+01])))

species(name='aR',
        atoms='C:4 H:9 O:1',
        thermo=(NASA([10.00, 455.22],
                     [ 3.59625500E+00,  3.38947981E-02,  7.37257079E-06,
                      -3.99275335E-08,  2.49019944E-11, -1.31236607E+04,
                       1.18269265E+01]),
                NASA([455.22, 3000.00],
                     [ 2.49586309E+00,  4.35639890E-02, -2.44887770E-05,
                       6.73363769E-09, -7.23862433E-13, -1.30234775E+04,
                       1.62696907E+01])))

species(name='performic_acid',
        atoms='C:1 H:2 O:3',
        thermo=(NASA([10.00, 590.95],
                     [ 3.92633851E+00,  4.24517168E-03,  6.71106764E-05,
                      -1.36545385E-07,  8.03337864E-11, -3.63028176E+04,
                       8.06485813E+00]),
                NASA([590.95, 3000.00],
                     [ 4.39992934E+00,  1.85411415E-02, -1.36005501E-05,
                       4.62292431E-09, -5.88463603E-13, -3.66643888E+04,
                       3.44353230E+00])))

species(name='disub_c4ether',
        atoms='C:4 H:8 O:2',
        thermo=(NASA([10.00, 413.50],
                     [ 3.78241323E+00,  1.89501763E-02,  8.65302396E-05,
                      -1.80580575E-07,  1.13656264E-10, -4.10446391E+04,
                       1.09982450E+01]),
                NASA([413.50, 3000.00],
                     [ 4.29420885E-01,  5.13851903E-02, -3.11292293E-05,
                       9.11498284E-09, -1.03192718E-12, -4.07673447E+04,
                       2.42134976E+01])))

species(name='aQOOHb',
        atoms='C:4 H:9 O:3',
        thermo=(NASA([10.00, 412.78],
                     [ 3.15498836E+00,  8.55068303E-02, -2.35307993E-04,
                       4.71983261E-07, -3.62709267E-10, -2.96199315E+04,
                       1.52522123E+01]),
                NASA([412.78, 3000.00],
                     [ 4.18099845E+00,  5.26168288E-02, -3.23998410E-05,
                       9.59389339E-09, -1.09464519E-12, -2.95091366E+04,
                       1.35782328E+01])))

species(name='H',
        atoms='H:1',
        thermo=(NASA([10.00, 794.01],
                     [ 2.50000000E+00,  1.99051163E-15, -1.19089508E-17,
                       2.10805655E-20, -1.11017699E-23,  2.54725594E+04,
                      -4.61279342E-01]),
                NASA([794.01, 3000.00],
                     [ 2.50000000E+00,  1.52667235E-14, -1.58445285E-17,
                       6.63088600E-21, -9.62111674E-25,  2.54725594E+04,
                      -4.61279342E-01])))

species(name='aadduct',
        atoms='C:4 H:9 O:3',
        thermo=(NASA([10.00, 449.84],
                     [ 3.06901904E+00,  9.20724491E-02, -2.68085092E-04,
                       5.15249897E-07, -3.68046586E-10, -3.23023562E+04,
                       1.46591735E+01]),
                NASA([449.84, 3000.00],
                     [ 4.11210745E+00,  5.16955724E-02, -2.97401041E-05,
                       8.32758939E-09, -9.08861448E-13, -3.20815152E+04,
                       1.39578825E+01])))

species(name='trisub_epoxy',
        atoms='C:4 H:8 O:2',
        thermo=(NASA([10.00, 209.19],
                     [ 3.75295042E+00,  2.37546930E-02,  1.26610110E-04,
                      -4.78364365E-07,  5.79468168E-10, -4.06923354E+04,
                       1.12739684E+01]),
                NASA([209.19, 3000.00],
                     [ 2.64185254E+00,  4.50006531E-02, -2.57361066E-05,
                       7.15266054E-09, -7.72980731E-13, -4.06458498E+04,
                       1.48960343E+01])))

species(name='ibutenol',
        atoms='C:4 H:8 O:1',
        thermo=(NASA([10.00, 135.97],
                     [ 3.95714996E+00,  5.72646980E-03,  4.63611760E-04,
                      -3.04137514E-06,  6.85019471E-09, -2.33418147E+04,
                       8.21931848E+00]),
                NASA([135.97, 3000.00],
                     [ 3.32467612E+00,  3.69033556E-02, -1.89960416E-05,
                       4.73417677E-09, -4.59705291E-13, -2.33362360E+04,
                       9.58133237E+00])))

species(name='aQOOH[O]',
        atoms='C:4 H:9 O:3',
        thermo=(NASA([10.00, 488.36],
                     [ 3.54559533E+00,  3.89536133E-02,  8.47689703E-05,
                      -2.45147486E-07,  1.76157259E-10, -2.41353498E+04,
                       1.34685910E+01]),
                NASA([488.36, 3000.00],
                     [ 3.94214913E+00,  5.71928314E-02, -3.72516212E-05,
                       1.15209013E-08, -1.35808341E-12, -2.44303107E+04,
                       9.21628964E+00])))

species(name='ipropyl',
        atoms='C:3 H:7',
        thermo=(NASA([10.00, 421.76],
                     [ 3.73943775E+00,  3.10070157E-02, -1.51196908E-04,
                       4.35367329E-07, -3.85565052E-10,  9.49213457E+03,
                       7.79448918E+00]),
                NASA([421.76, 3000.00],
                     [-4.74526725E-01,  3.20862468E-02, -1.67340747E-05,
                       4.21365136E-09, -4.13155573E-13,  1.01934458E+04,
                       2.85865912E+01])))

species(name='aRO2',
        atoms='C:4 H:9 O:3',
        thermo=(NASA([10.00, 670.36],
                     [ 3.45405325E+00,  4.74751311E-02,  9.77507759E-06,
                      -6.31019603E-08,  3.75500067E-11, -3.72917724E+04,
                       1.39284976E+01]),
                NASA([670.36, 3000.00],
                     [ 5.04137652E+00,  5.19952978E-02, -3.16472789E-05,
                       9.22798587E-09, -1.03598915E-12, -3.78189650E+04,
                       4.56056770E+00])))

species(name='O2',
        atoms='O:2',
        thermo=(NASA([10.00, 605.96],
                     [ 3.50743498E+00, -4.43860349E-04,  1.45938058E-06,
                       1.61509333E-09, -2.32050052E-12, -9.24756224E+02,
                       4.72183634E+00]),
                NASA([605.96, 3000.00],
                     [ 2.87462882E+00,  2.17840991E-03, -1.18262921E-06,
                       2.86910493E-10, -2.53297146E-14, -8.19517838E+02,
                       7.69331810E+00])))

species(name='formic_acid',
        atoms='C:1 H:2 O:2',
        thermo=(NASA([10.00, 741.38],
                     [ 4.06855785E+00, -4.74562133E-03,  4.71797900E-05,
                      -6.07490052E-08,  2.51286794E-11, -4.66880837E+04,
                       6.53681035E+00]),
                NASA([741.38, 3000.00],
                     [ 1.13645847E+00,  1.74953124E-02, -1.08112403E-05,
                       3.08075326E-09, -3.34892658E-13, -4.64297918E+04,
                       1.86149484E+01])))

species(name='propene',
        atoms='C:3 H:6',
        thermo=(NASA([10.00, 519.53],
                     [ 3.98723879E+00,  4.72040503E-04,  6.51776229E-05,
                      -9.89891002E-08,  4.91141123E-11,  8.07979142E+02,
                       6.98071210E+00]),
                NASA([519.53, 3000.00],
                     [ 3.79893331E-01,  2.82457690E-02, -1.50108430E-05,
                       3.90894069E-09, -4.00521928E-13,  1.18280649E+03,
                       2.20218922E+01])))

species(name='aQOOHg',
        atoms='C:4 H:9 O:3',
        thermo=(NASA([10.00, 455.48],
                     [ 3.62522127E+00,  2.83222320E-02,  2.08527447E-04,
                      -5.67427418E-07,  4.35169138E-10, -2.85821046E+04,
                       1.26617758E+01]),
                NASA([455.48, 3000.00],
                     [ 5.13914202E+00,  5.96270859E-02, -4.14435328E-05,
                       1.34202375E-08, -1.63474553E-12, -2.91826609E+04,
                       1.46991116E+00])))

species(name='ibut_peroxyacid',
        atoms='C:4 H:8 O:3',
        thermo=(NASA([10.00, 1386.21],
                     [ 3.50995385E+00,  4.78670384E-02, -2.40781384E-05,
                       3.71046938E-09,  3.85442115E-13, -4.90759813E+04,
                       1.22017268E+01]),
                NASA([1386.21, 3000.00],
                     [ 1.24543146E+01,  3.02396862E-02, -1.38577031E-05,
                       3.05328904E-09, -2.63982457E-13, -5.23418646E+04,
                      -3.67061828E+01])))

species(name='HO2',
        atoms='H:1 O:2',
        thermo=(NASA([10.00, 891.11],
                     [ 4.02887004E+00, -1.75769289E-03,  1.08726004E-05,
                      -1.13812972E-08,  3.90113097E-12,  4.95165001E+02,
                       4.69302008E+00]),
                NASA([891.11, 3000.00],
                     [ 3.06571044E+00,  4.28505005E-03, -2.19325920E-06,
                       5.58882699E-10, -5.61246669E-14,  5.98557610E+02,
                       8.84564156E+00])))

species(name='CH3',
        atoms='C:1 H:3',
        thermo=(NASA([10.00, 616.77],
                     [ 3.98929952E+00,  5.45150461E-04,  9.01320092E-06,
                      -1.08320497E-08,  4.38985879E-12,  1.65859883E+04,
                       2.22446886E-01]),
                NASA([616.77, 3000.00],
                     [ 3.35928237E+00,  4.63117126E-03, -9.24365433E-07,
                      -9.02514624E-11,  3.56905106E-14,  1.66637014E+04,
                       2.95743732E+00])))

#-------------------------------------------------------------------------------
# Reaction data
#-------------------------------------------------------------------------------

# Reaction 1
chebyshev_reaction('aQOOH[O] (+ M) <=> aQOOHb (+ M)',
                   Tmin=180.0, Tmax=1500.0,
                   Pmin=(0.01, 'atm'), Pmax=(98.692, 'atm'),
                   coeffs=[[-7.43600e+00,  2.06700e+00, -1.81500e-01,  5.42300e-02, -1.58900e-02,  1.85100e-03,  1.57500e-03,  2.84500e-04],
                           [-4.67600e+00,  2.06900e+00,  1.77100e-01, -8.36500e-02, -9.40300e-03, -2.57000e-03,  1.04300e-03, -2.72200e-06],
                           [-2.61000e+00,  5.96600e-01,  1.24800e-01,  5.75300e-03, -6.28400e-04, -1.23300e-03, -1.76400e-04, -3.80900e-04],
                           [-1.37300e+00, -1.26000e-01, -2.69700e-02,  2.51200e-02,  1.60400e-02,  1.30000e-03, -1.91600e-03, -6.24600e-04],
                           [-7.32000e-01, -2.43400e-01, -8.10900e-02,  2.44400e-03,  1.40300e-02,  2.90100e-03, -1.45500e-03, -5.66600e-04],
                           [-3.03900e-01, -1.32600e-01, -5.97500e-02, -8.88000e-03,  3.39100e-03,  1.27300e-03, -3.18400e-04, -4.57600e-05],
                           [-1.39000e-01, -4.45100e-02, -2.13100e-02, -6.40300e-03, -1.52700e-03, -5.51100e-04, -1.37100e-05,  2.24500e-04],
                           [-9.59300e-02, -1.77300e-02, -2.54000e-03, -3.20500e-03, -8.39900e-04, -4.52400e-04, -4.94000e-06,  1.04200e-04],
                           [ 1.45300e-02,  1.12200e-04, -7.50100e-03, -1.21300e-03, -3.03800e-04,  3.53600e-04,  2.08100e-04, -4.56500e-05],
                           [-2.02900e-04, -2.45500e-03, -6.49100e-04, -3.46500e-03, -3.78600e-04,  6.53600e-04,  3.60800e-04, -8.94800e-06]])

# Reaction 2
chebyshev_reaction('aQOOHg (+ M) <=> aQOOHb (+ M)',
                   Tmin=180.0, Tmax=1500.0,
                   Pmin=(0.01, 'atm'), Pmax=(98.692, 'atm'),
                   coeffs=[[-1.02000e+01,  1.86900e+00, -2.42700e-01, -6.80200e-02, -1.63600e-02,  9.21500e-03,  1.73500e-03, -6.85500e-04],
                           [ 3.09000e+00,  3.31700e+00,  3.25500e-01, -1.13700e-01, -1.22600e-02, -2.63100e-03,  2.54100e-03,  5.12000e-04],
                           [-2.48000e+00,  1.65400e-01,  1.82500e-01,  7.89000e-02,  2.79300e-03, -7.39500e-03, -2.39900e-03,  3.00300e-04],
                           [-1.74200e+00, -5.76600e-01,  2.28200e-02,  4.23300e-02,  9.72700e-03,  3.03600e-03, -1.95000e-03, -5.61200e-04],
                           [-9.15400e-01, -3.95400e-01, -5.48800e-02,  6.66800e-03,  2.90700e-03,  1.95700e-03,  1.20100e-04,  2.44000e-04],
                           [-3.96700e-01, -2.45000e-01, -4.92400e-02, -4.98900e-04,  9.98500e-05, -1.33100e-03,  2.54000e-04,  4.16100e-04],
                           [-1.47700e-01, -1.08100e-01, -4.30000e-02,  3.13400e-04,  4.34800e-04, -9.69600e-04, -1.54900e-04, -5.86800e-05],
                           [-2.19600e-02, -2.83600e-02, -2.64400e-02, -4.48600e-03,  1.43400e-03,  5.51900e-04, -3.88100e-04, -2.32300e-04],
                           [ 1.63900e-02,  1.83500e-02, -1.21800e-02, -8.61900e-03,  8.04600e-04,  1.23800e-03, -6.14900e-05, -1.32100e-04],
                           [ 2.28200e-02,  3.01400e-02,  2.93200e-03, -9.17000e-03, -1.70000e-03,  1.12500e-03,  4.59600e-04, -2.22600e-06]])

# Reaction 3
chebyshev_reaction('aRO2 (+ M) <=> aQOOHb (+ M)',
                   Tmin=180.0, Tmax=1500.0,
                   Pmin=(0.01, 'atm'), Pmax=(98.692, 'atm'),
                   coeffs=[[-1.22000e+01,  1.46000e+00,  8.11100e-02, -3.55900e-02, -1.29900e-02,  1.65800e-03,  1.51100e-03, -6.63300e-05],
                           [ 8.67200e+00,  2.05500e+00,  2.09300e-01, -5.74700e-02, -1.73600e-02,  2.50800e-03,  1.96900e-03, -3.12000e-04],
                           [-2.12500e+00,  6.06400e-01,  1.41600e-01, -4.19500e-04, -2.37500e-03,  1.15100e-03, -1.15600e-04, -5.92100e-04],
                           [-1.45000e+00, -2.08500e-01, -6.27200e-03,  2.62400e-02,  1.19400e-02,  9.72400e-04, -1.56600e-03, -6.86000e-04],
                           [-8.07700e-01, -3.06100e-01, -7.73500e-02,  1.05300e-02,  1.22200e-02,  1.64300e-03, -1.29400e-03, -4.24400e-04],
                           [-3.58400e-01, -1.52900e-01, -5.78200e-02, -4.95600e-03,  3.26000e-03,  5.53900e-04, -3.02300e-04,  8.74300e-05],
                           [-1.39000e-01, -4.38600e-02, -2.31300e-02, -4.59100e-03, -1.55300e-03, -1.04600e-03, -1.72200e-05,  3.52700e-04],
                           [-4.93500e-02, -1.03900e-02, -9.56900e-03, -9.50600e-04, -4.23500e-04, -8.91400e-04, -1.58800e-04,  1.88500e-04],
                           [-2.58200e-02, -2.05600e-03, -8.16900e-03, -1.31200e-03,  8.77600e-04,  2.59900e-04, -2.00200e-05, -2.71400e-05],
                           [ 3.53900e-03,  4.43900e-03, -5.57100e-03, -3.20300e-03,  1.72900e-04,  6.53200e-04,  2.56600e-04, -2.85600e-05]])

# Reaction 4
chebyshev_reaction('aadduct (+ M) <=> aQOOHb (+ M)',
                   Tmin=180.0, Tmax=1500.0,
                   Pmin=(0.01, 'atm'), Pmax=(98.692, 'atm'),
                   coeffs=[[-9.76400e+00,  6.42300e-01, -4.64100e-02,  8.94100e-03, -2.21600e-02,  5.91400e-04,  2.82000e-03, -5.27200e-04],
                           [ 2.47500e+00,  2.64700e+00,  3.40600e-01, -7.36400e-02, -9.82100e-03,  9.23800e-04,  1.32400e-03,  1.67000e-04],
                           [-2.89900e+00,  3.70100e-01,  1.51900e-01, -2.01300e-04,  1.66700e-04,  3.50500e-03, -7.42300e-04, -6.63100e-04],
                           [-1.78600e+00, -3.70300e-01, -4.29700e-02,  1.59000e-02,  9.86100e-03,  2.51700e-03, -1.30800e-03, -8.27700e-04],
                           [-8.31200e-01, -2.71100e-01, -8.77900e-02,  3.93300e-03,  9.60300e-03,  9.69800e-04, -1.17400e-03, -3.87900e-04],
                           [-3.00500e-01, -7.52600e-02, -5.21800e-02, -5.09400e-03,  3.74300e-03, -1.56700e-04, -5.95100e-04,  1.33300e-04],
                           [-9.34200e-02,  8.20200e-03, -1.47700e-02, -3.65000e-03, -3.16500e-04, -8.57300e-04, -1.95300e-04,  3.30400e-04],
                           [-3.42200e-02,  1.00100e-02, -1.32700e-03,  6.42100e-04, -1.17600e-04, -5.64800e-04, -9.26700e-05,  1.72800e-04],
                           [-2.66800e-02, -3.82900e-03, -5.92800e-03,  7.52300e-04,  1.12600e-03,  2.69600e-04,  7.43200e-05, -1.18000e-05],
                           [-1.09400e-02, -1.18400e-02, -8.62700e-03, -2.90900e-03,  5.10200e-04,  6.80200e-04,  2.55600e-04, -9.25700e-06]])

# Reaction 5
chebyshev_reaction('O2 + aR (+ M) <=> aQOOHb (+ M)',
                   Tmin=180.0, Tmax=1500.0,
                   Pmin=(0.01, 'atm'), Pmax=(98.692, 'atm'),
                   coeffs=[[ 7.73900e-01,  8.22300e+00, -1.01500e+00, -5.16800e-01,  1.94200e-01, -1.45500e-02, -8.68500e-02,  7.91200e-02],
                           [-2.27900e+00, -4.75000e-01,  9.22500e-01,  1.78100e-01, -2.12600e-01,  4.76200e-02,  1.03000e-01, -1.03400e-01],
                           [-1.25200e+00, -7.69100e-01,  3.89100e-01,  3.60100e-02, -2.18300e-02,  5.71200e-03, -5.29200e-03,  7.59400e-03],
                           [-6.79400e-01, -5.46200e-01,  4.14900e-02,  4.32900e-03,  1.61900e-02, -1.03500e-02, -6.26000e-03,  1.53900e-02],
                           [-3.49700e-01, -2.22600e-01, -6.53600e-02,  1.52600e-02, -4.53500e-04, -3.51400e-03, -1.62900e-03,  2.19300e-03],
                           [-1.56400e-01, -5.06900e-02, -5.19100e-02,  1.75300e-02, -8.63500e-03, -7.54000e-04,  1.72300e-03, -2.95700e-03],
                           [-5.18200e-02, -8.37100e-03, -8.54600e-03,  7.77300e-03, -3.76900e-03, -6.37800e-04,  9.46400e-04, -1.76700e-03],
                           [-1.04600e-02, -1.20300e-02,  1.11200e-02,  2.24700e-03,  3.16700e-03, -2.52900e-03,  6.45500e-04,  1.49800e-04],
                           [-3.14200e-03, -1.72600e-02,  1.26200e-02, -3.28000e-03,  5.22400e-03, -4.26500e-04, -7.24600e-04,  7.42300e-04],
                           [-5.41400e-03, -1.41100e-02,  4.61100e-04, -1.09300e-03,  2.38200e-03,  3.55900e-04, -2.28700e-04,  5.44600e-04]])
#  aQOOHb(+M) <=> aQOOH[O](+M)                         1.000e+00 0.000     0.000
#      TCHEB/ 180.000   1500.000 /
#      PCHEB/ 0.010     98.692   /
#      CHEB/ 10 8/
#      CHEB/ -1.634e+01   2.067e+00    -1.815e-01   5.423e-02    -1.589e-02  /
#      CHEB/ 1.851e-03    1.575e-03    2.845e-04    9.682e-01    2.069e+00   /
#      CHEB/ 1.771e-01    -8.365e-02   -9.403e-03   -2.570e-03   1.043e-03   /
#      CHEB/ -2.722e-06   -2.532e+00   5.966e-01    1.248e-01    5.753e-03   /
#      CHEB/ -6.284e-04   -1.233e-03   -1.764e-04   -3.809e-04   -1.327e+00  /
#      CHEB/ -1.260e-01   -2.697e-02   2.512e-02    1.604e-02    1.300e-03   /
#      CHEB/ -1.916e-03   -6.246e-04   -7.166e-01   -2.434e-01   -8.109e-02  /
#      CHEB/ 2.444e-03    1.403e-02    2.901e-03    -1.455e-03   -5.666e-04  /
#      CHEB/ -2.991e-01   -1.326e-01   -5.975e-02   -8.880e-03   3.391e-03   /
#      CHEB/ 1.273e-03    -3.184e-04   -4.576e-05   -1.372e-01   -4.451e-02  /
#      CHEB/ -2.131e-02   -6.403e-03   -1.527e-03   -5.511e-04   -1.371e-05  /
#      CHEB/ 2.245e-04    -9.521e-02   -1.773e-02   -2.540e-03   -3.205e-03  /
#      CHEB/ -8.399e-04   -4.524e-04   -4.940e-06   1.042e-04    1.473e-02   /
#      CHEB/ 1.122e-04    -7.501e-03   -1.213e-03   -3.038e-04   3.536e-04   /
#      CHEB/ 2.081e-04    -4.565e-05   -1.959e-04   -2.455e-03   -6.491e-04  /
#      CHEB/ -3.465e-03   -3.786e-04   6.536e-04    3.608e-04    -8.948e-06  /

# Reaction 6
chebyshev_reaction('aQOOHg (+ M) <=> aQOOH[O] (+ M)',
                   Tmin=180.0, Tmax=1500.0,
                   Pmin=(0.01, 'atm'), Pmax=(98.692, 'atm'),
                   coeffs=[[-9.39100e+00,  2.24600e+00, -2.47900e-03, -7.20500e-03,  1.63300e-03,  1.42400e-03, -6.21000e-04, -2.39900e-05],
                           [-3.52000e-01,  3.92600e-01, -3.10900e-02, -2.35900e-02, -3.56900e-03,  2.45900e-03,  1.93200e-04,  1.15900e-04],
                           [-2.67300e+00,  2.73300e-01,  4.28600e-02, -3.53500e-03, -7.89300e-03,  1.38700e-04,  2.87800e-04, -2.41800e-04],
                           [-1.28200e+00,  2.68400e-02,  5.96100e-02,  1.34900e-02, -1.06600e-02, -1.31700e-03,  1.50800e-03, -7.71900e-05],
                           [-9.03500e-01, -1.35500e-01,  5.44800e-02,  3.80600e-02, -3.72600e-03, -4.08500e-03,  7.29200e-04,  1.36400e-04],
                           [-4.36400e-01, -2.35500e-01, -1.97100e-02,  3.21900e-02,  6.22500e-03, -3.89100e-03, -4.29800e-04,  4.49500e-04],
                           [-2.74200e-01, -1.89800e-01, -6.46100e-02,  1.30800e-02,  1.33900e-02, -6.66500e-04, -1.70500e-03,  1.72400e-04],
                           [-1.44800e-01, -9.16000e-02, -7.49200e-02, -1.30600e-02,  1.02100e-02,  3.25700e-03, -1.19900e-03, -2.74200e-04],
                           [ 4.86600e-02, -1.18000e-03, -5.02500e-02, -2.80100e-02,  8.28800e-05,  4.18300e-03,  4.14900e-04, -3.59700e-04],
                           [ 4.04700e-02,  6.05900e-02, -4.00400e-03, -2.19500e-02, -7.95600e-03,  1.60400e-03,  1.33600e-03, -1.45000e-05]])

# Reaction 7
chebyshev_reaction('aRO2 (+ M) <=> aQOOH[O] (+ M)',
                   Tmin=180.0, Tmax=1500.0,
                   Pmin=(0.01, 'atm'), Pmax=(98.692, 'atm'),
                   coeffs=[[-1.32200e+01,  2.42600e+00, -1.59600e-01,  4.93900e-02, -1.34400e-02,  2.45400e-03, -3.96300e-04, -3.39500e-05],
                           [ 7.77500e+00,  4.69300e-01, -7.37100e-02, -1.85400e-04,  1.32800e-02, -4.67800e-03,  9.72200e-04, -8.81300e-05],
                           [-3.07000e+00,  2.14400e-01, -9.53400e-03, -1.25700e-02,  5.93000e-03, -8.28100e-04, -3.71000e-04,  1.77000e-04],
                           [-1.41500e+00,  4.37900e-02,  1.99000e-02, -5.38000e-03,  6.81100e-04,  6.26700e-04, -3.14900e-04, -1.40900e-05],
                           [-7.03900e-01, -4.81700e-02,  1.54300e-02,  1.13000e-03, -6.12200e-04,  2.90700e-04,  9.72200e-05, -4.62100e-05],
                           [-3.25800e-01, -6.84600e-02, -1.65300e-03,  4.12300e-03, -2.72400e-04, -2.20600e-04,  9.77300e-05,  1.53500e-05],
                           [-1.77900e-01, -5.65300e-02, -1.26700e-02,  1.74300e-03,  8.39100e-04, -1.69600e-04, -8.90500e-06,  5.38200e-05],
                           [-1.13100e-01, -3.29900e-02, -1.34000e-02, -2.22900e-03,  1.26000e-03,  9.77600e-05, -5.76600e-05,  2.73900e-05],
                           [-1.36800e-03, -6.33500e-03, -1.22000e-02, -3.27600e-03, -7.59900e-05,  3.71000e-04, -3.37500e-05, -1.67500e-05],
                           [ 5.49700e-03,  5.38900e-03, -3.99500e-03, -4.16800e-03, -4.61800e-04,  2.46000e-04,  9.78600e-05, -1.53000e-05]])

# Reaction 8
chebyshev_reaction('aadduct (+ M) <=> aQOOH[O] (+ M)',
                   Tmin=180.0, Tmax=1500.0,
                   Pmin=(0.01, 'atm'), Pmax=(98.692, 'atm'),
                   coeffs=[[-1.06800e+01,  1.67500e+00, -3.47500e-01,  6.42300e-02, -1.79500e-02,  7.00800e-03,  1.30200e-03, -1.50400e-03],
                           [ 1.31000e+00,  7.73200e-01,  4.02000e-02,  5.44700e-03,  1.59600e-02, -1.15900e-02,  4.42700e-04,  1.59000e-03],
                           [-3.70200e+00,  1.73000e-01,  5.40800e-02, -8.68400e-03,  5.49400e-03,  3.17900e-04, -9.81400e-04,  6.34600e-05],
                           [-1.71300e+00, -5.78900e-02,  9.21100e-03, -4.74800e-03,  1.56000e-03,  2.42800e-03, -3.52100e-04, -3.57000e-04],
                           [-7.73100e-01, -7.60300e-02, -1.74600e-02, -3.79700e-03,  4.21600e-04,  7.50600e-04,  2.27300e-04, -8.18100e-05],
                           [-2.89500e-01, -2.56200e-02, -1.84300e-02, -3.61700e-03, -6.87100e-04, -1.97400e-04,  2.71500e-04,  1.06600e-04],
                           [-1.31900e-01, -4.06600e-03, -9.02400e-03, -1.70900e-03, -1.10700e-04, -3.24800e-04, -4.87200e-06,  1.11600e-04],
                           [-9.68000e-02, -1.06000e-02, -4.94500e-03, -5.22600e-04,  9.78700e-04, -1.22000e-04, -1.52700e-04,  4.08200e-05],
                           [-3.09900e-03, -6.97700e-03, -8.83000e-03, -1.33300e-03, -1.79700e-04,  3.18700e-04,  8.51100e-05, -1.75800e-05],
                           [-5.01700e-03, -8.43200e-03, -7.63100e-03, -3.20600e-03,  2.20700e-04,  1.88600e-04,  3.64400e-06, -1.37900e-05]])

# Reaction 9
chebyshev_reaction('O2 + aR (+ M) <=> aQOOH[O] (+ M)',
                   Tmin=180.0, Tmax=1500.0,
                   Pmin=(0.01, 'atm'), Pmax=(98.692, 'atm'),
                   coeffs=[[-1.09400e+00,  5.46000e+00, -1.07400e+00, -3.97300e-01,  3.16400e-01,  1.08900e-02, -1.16100e-01,  7.40800e-02],
                           [-2.46900e+00, -6.11200e-01,  9.97900e-01,  3.60300e-02, -3.22000e-01,  3.80100e-02,  1.30100e-01, -9.62100e-02],
                           [-1.18900e+00, -5.54300e-01,  5.30300e-01,  3.03400e-02, -8.25400e-02,  1.02100e-02,  2.34600e-03,  1.18800e-03],
                           [-6.09300e-01, -3.78400e-01,  1.42200e-01,  6.95700e-02, -1.64300e-02, -5.22500e-03, -6.83100e-03,  1.14800e-02],
                           [-4.38800e-01, -1.35900e-01, -6.85500e-02,  8.21100e-02, -6.00400e-03, -9.20300e-03,  3.99000e-03,  1.06000e-03],
                           [-2.23900e-01, -6.74200e-02, -9.63400e-02,  4.62900e-02,  2.59300e-03, -9.50600e-03,  7.31300e-03, -2.88900e-03],
                           [-1.35000e-01, -5.05200e-02, -5.51500e-02,  4.31200e-03,  1.35200e-02, -9.97300e-03,  4.39200e-03, -1.63900e-04],
                           [-1.03300e-01, -4.55600e-02, -1.77600e-02, -1.58400e-02,  1.38100e-02, -5.59400e-03, -6.03800e-04,  3.17000e-03],
                           [ 3.30800e-02, -2.86600e-02, -1.11700e-03, -1.87200e-02,  5.09900e-03,  2.27500e-03, -4.79300e-03,  3.51200e-03],
                           [-3.07400e-03,  8.19500e-03, -2.35300e-03, -4.35000e-03, -2.97200e-03,  3.68400e-03, -3.34700e-03,  1.45400e-03]])
#  aQOOHb(+M) <=> aQOOHg(+M)                           1.000e+00 0.000     0.000
#      TCHEB/ 180.000   1500.000 /
#      PCHEB/ 0.010     98.692   /
#      CHEB/ 10 8/
#      CHEB/ -1.330e+01   1.869e+00    -2.427e-01   -6.802e-02   -1.636e-02  /
#      CHEB/ 9.215e-03    1.735e-03    -6.855e-04   4.318e+00    3.317e+00   /
#      CHEB/ 3.255e-01    -1.137e-01   -1.226e-02   -2.631e-03   2.541e-03   /
#      CHEB/ 5.120e-04    -2.257e+00   1.654e-01    1.825e-01    7.890e-02   /
#      CHEB/ 2.793e-03    -7.395e-03   -2.399e-03   3.003e-04    -1.648e+00  /
#      CHEB/ -5.766e-01   2.282e-02    4.233e-02    9.727e-03    3.036e-03   /
#      CHEB/ -1.950e-03   -5.612e-04   -8.872e-01   -3.954e-01   -5.488e-02  /
#      CHEB/ 6.668e-03    2.907e-03    1.957e-03    1.201e-04    2.440e-04   /
#      CHEB/ -3.889e-01   -2.450e-01   -4.924e-02   -4.989e-04   9.985e-05   /
#      CHEB/ -1.331e-03   2.540e-04    4.161e-04    -1.452e-01   -1.081e-01  /
#      CHEB/ -4.300e-02   3.134e-04    4.348e-04    -9.696e-04   -1.549e-04  /
#      CHEB/ -5.868e-05   -2.123e-02   -2.836e-02   -2.644e-02   -4.486e-03  /
#      CHEB/ 1.434e-03    5.519e-04    -3.881e-04   -2.323e-04   1.641e-02   /
#      CHEB/ 1.835e-02    -1.218e-02   -8.619e-03   8.046e-04    1.238e-03   /
#      CHEB/ -6.149e-05   -1.321e-04   2.268e-02    3.014e-02    2.932e-03   /
#      CHEB/ -9.170e-03   -1.700e-03   1.125e-03    4.596e-04    -2.226e-06  /
#  aQOOH[O](+M) <=> aQOOHg(+M)                         1.000e+00 0.000     0.000
#      TCHEB/ 180.000   1500.000 /
#      PCHEB/ 0.010     98.692   /
#      CHEB/ 10 8/
#      CHEB/ -3.578e+00   2.246e+00    -2.479e-03   -7.205e-03   1.633e-03   /
#      CHEB/ 1.424e-03    -6.210e-04   -2.399e-05   -4.768e+00   3.926e-01   /
#      CHEB/ -3.109e-02   -2.359e-02   -3.569e-03   2.459e-03    1.932e-04   /
#      CHEB/ 1.159e-04    -2.528e+00   2.733e-01    4.286e-02    -3.535e-03  /
#      CHEB/ -7.893e-03   1.387e-04    2.878e-04    -2.418e-04   -1.234e+00  /
#      CHEB/ 2.684e-02    5.961e-02    1.349e-02    -1.066e-02   -1.317e-03  /
#      CHEB/ 1.508e-03    -7.719e-05   -8.907e-01   -1.355e-01   5.448e-02   /
#      CHEB/ 3.806e-02    -3.726e-03   -4.085e-03   7.292e-04    1.364e-04   /