units(length='cm', time='s', quantity='mol', act_energy='kcal/mol')

ideal_gas(name='gas',
          elements="H D T C Ci O Oi N Ne Ar He Si S F Cl Br I X",
          species="""OH             bQOOH[O]       acetone
                     H2O            balkoxyketone  ibutenol
                     trisub_epoxy   bQOOHg         CH2O
                     galkene        O2             bR
                     bQOOHa         bRO2           disub_epoxy
                     HO2""",
          reactions='all',
          initial_state=state(temperature=300.0, pressure=OneAtm))

#-------------------------------------------------------------------------------
# Element data
#-------------------------------------------------------------------------------

element(symbol='Ci', atomic_mass=13.003)
element(symbol='D', atomic_mass=2.014)
element(symbol='Oi', atomic_mass=18.0)
element(symbol='T', atomic_mass=3.016)
element(symbol='X', atomic_mass=195.083)
#-------------------------------------------------------------------------------
# Species data
#-------------------------------------------------------------------------------

species(name='OH',
        atoms='H:1 O:1',
        thermo=(NASA([10.00, 984.14],
                     [ 3.49686242E+00,  1.83973160E-04, -9.97634499E-07,
                       1.56942783E-09, -6.10128175E-13,  3.41673934E+03,
                       1.48093120E+00]),
                NASA([984.14, 3000.00],
                     [ 3.45221464E+00, -2.95124034E-04,  7.39418622E-07,
                      -2.89309866E-10,  3.53041498E-14,  3.45751599E+03,
                       1.85813897E+00])))

species(name='bQOOH[O]',
        atoms='C:4 H:9 O:3',
        thermo=(NASA([10.00, 338.69],
                     [ 3.60915854E+00,  3.39069566E-02,  2.22227265E-04,
                      -8.23527342E-07,  8.56246333E-10, -2.38847280E+04,
                       1.23284605E+01]),
                NASA([338.69, 3000.00],
                     [ 5.03198881E+00,  5.46235886E-02, -3.56935806E-05,
                       1.12371751E-08, -1.35390171E-12, -2.41963107E+04,
                       3.82760723E+00])))

species(name='acetone',
        atoms='C:3 H:6 O:1',
        thermo=(NASA([10.00, 414.35],
                     [ 3.73496166E+00,  3.05743218E-02, -1.26253585E-04,
                       3.66080978E-07, -3.31430437E-10, -2.87624056E+04,
                       8.24936012E+00]),
                NASA([414.35, 3000.00],
                     [ 1.70010292E-01,  3.28431468E-02, -1.80960132E-05,
                       4.82960690E-09, -5.02388538E-13, -2.81910225E+04,
                       2.56372653E+01])))

species(name='H2O',
        atoms='H:2 O:1',
        thermo=(NASA([10.00, 773.84],
                     [ 4.00473541E+00, -2.39729134E-04,  8.11862955E-07,
                       1.47891862E-09, -1.19783539E-12, -3.03533807E+04,
                      -9.96254147E-02]),
                NASA([773.84, 3000.00],
                     [ 3.52133374E+00,  1.05377009E-03,  6.40722099E-07,
                      -3.86240235E-10,  5.49243294E-14, -3.02424794E+04,
                       2.34173094E+00])))

species(name='balkoxyketone',
        atoms='C:4 H:7 O:2',
        thermo=(NASA([10.00, 269.93],
                     [ 3.81931151E+00,  1.68519318E-02,  2.42742224E-04,
                      -9.64821161E-07,  1.18509335E-09, -2.27253111E+04,
                       1.20521854E+01]),
                NASA([269.93, 3000.00],
                     [ 3.57555944E+00,  4.28868089E-02, -2.65390705E-05,
                       7.99659117E-09, -9.32983470E-13, -2.27938392E+04,
                       1.13957990E+01])))

species(name='ibutenol',
        atoms='C:4 H:8 O:1',
        thermo=(NASA([10.00, 135.97],
                     [ 3.95714996E+00,  5.72646980E-03,  4.63611760E-04,
                      -3.04137514E-06,  6.85019471E-09, -2.25117488E+04,
                       8.21931848E+00]),
                NASA([135.97, 3000.00],
                     [ 3.32467612E+00,  3.69033556E-02, -1.89960416E-05,
                       4.73417677E-09, -4.59705291E-13, -2.25061702E+04,
                       9.58133237E+00])))

species(name='trisub_epoxy',
        atoms='C:4 H:8 O:2',
        thermo=(NASA([10.00, 209.19],
                     [ 3.75295042E+00,  2.37546930E-02,  1.26610110E-04,
                      -4.78364365E-07,  5.79468168E-10, -4.19501026E+04,
                       1.12739684E+01]),
                NASA([209.19, 3000.00],
                     [ 2.64185254E+00,  4.50006531E-02, -2.57361066E-05,
                       7.15266054E-09, -7.72980731E-13, -4.19036170E+04,
                       1.48960343E+01])))

species(name='bQOOHg',
        atoms='C:4 H:9 O:3',
        thermo=(NASA([10.00, 441.09],
                     [ 3.56595280E+00,  3.36073467E-02,  2.03462772E-04,
                      -5.98977617E-07,  4.83271168E-10, -2.43307304E+04,
                       1.33537891E+01]),
                NASA([441.09, 3000.00],
                     [ 6.09031192E+00,  5.80517622E-02, -4.06392697E-05,
                       1.32574026E-08, -1.62501077E-12, -2.50139158E+04,
                      -1.97849715E+00])))

species(name='CH2O',
        atoms='C:1 H:2 O:1',
        thermo=(NASA([10.00, 601.31],
                     [ 4.03190845E+00, -1.93233367E-03,  8.89743345E-06,
                       2.98105926E-09, -7.90813886E-12, -1.42276270E+04,
                       3.47574660E+00]),
                NASA([601.31, 3000.00],
                     [ 1.40134195E+00,  9.48858016E-03, -4.43088317E-06,
                       9.48452194E-10, -7.43790219E-14, -1.38013869E+04,
                       1.57423780E+01])))

species(name='galkene',
        atoms='C:4 H:8 O:1',
        thermo=(NASA([10.00, 383.47],
                     [ 3.84035604E+00,  1.20378740E-02,  1.87486319E-04,
                      -5.44759148E-07,  4.80711015E-10, -2.09673694E+04,
                       1.02570291E+01]),
                NASA([383.47, 3000.00],
                     [ 4.00413385E+00,  3.79025144E-02, -2.15435710E-05,
                       6.15213311E-09, -6.97446345E-13, -2.11826587E+04,
                       6.98052628E+00])))

species(name='O2',
        atoms='O:2',
        thermo=(NASA([10.00, 605.96],
                     [ 3.50743498E+00, -4.43860349E-04,  1.45938058E-06,
                       1.61509333E-09, -2.32050052E-12, -9.24756224E+02,
                       4.72183634E+00]),
                NASA([605.96, 3000.00],
                     [ 2.87462882E+00,  2.17840991E-03, -1.18262921E-06,
                       2.86910493E-10, -2.53297146E-14, -8.19517838E+02,
                       7.69331810E+00])))

species(name='bR',
        atoms='C:4 H:9 O:1',
        thermo=(NASA([10.00, 483.43],
                     [ 3.38164846E+00,  5.97142637E-02, -1.58320095E-04,
                       3.04908893E-07, -2.13091806E-10, -1.37212093E+04,
                       1.09226843E+01]),
                NASA([483.43, 3000.00],
                     [ 2.33428824E+00,  4.22094427E-02, -2.28029290E-05,
                       6.04614564E-09, -6.30240159E-13, -1.33141274E+04,
                       1.83772893E+01])))

species(name='bQOOHa',
        atoms='C:4 H:9 O:3',
        thermo=(NASA([10.00, 390.53],
                     [ 3.54969236E+00,  3.76592474E-02,  1.76622653E-04,
                      -5.98063750E-07,  5.45069236E-10, -2.75375636E+04,
                       1.31518761E+01]),
                NASA([390.53, 3000.00],
                     [ 5.33564209E+00,  5.64935715E-02, -3.83214298E-05,
                       1.22990604E-08, -1.49549987E-12, -2.79601736E+04,
                       2.59015836E+00])))

species(name='bRO2',
        atoms='C:4 H:9 O:3',
        thermo=(NASA([10.00, 461.39],
                     [ 3.53964713E+00,  3.88723795E-02,  9.57420148E-05,
                      -2.80380499E-07,  2.09647462E-10, -3.24102760E+04,
                       1.18803618E+01]),
                NASA([461.39, 3000.00],
                     [ 3.47201723E+00,  6.00510247E-02, -4.00567321E-05,
                       1.25663813E-08, -1.49496682E-12, -3.26232228E+04,
                       9.77903975E+00])))

species(name='disub_epoxy',
        atoms='C:4 H:8 O:2',
        thermo=(NASA([10.00, 549.41],
                     [ 3.89863211E+00,  5.97532637E-03,  1.66685676E-04,
                      -3.10743768E-07,  1.78330192E-10, -4.01584787E+04,
                       1.13847308E+01]),
                NASA([549.41, 3000.00],
                     [-6.40277648E-01,  6.05960003E-02, -4.13427220E-05,
                       1.31555461E-08, -1.57685017E-12, -3.99853619E+04,
                       2.76005436E+01])))

species(name='HO2',
        atoms='H:1 O:2',
        thermo=(NASA([10.00, 891.11],
                     [ 4.02887004E+00, -1.75769289E-03,  1.08726004E-05,
                      -1.13812972E-08,  3.90113097E-12,  4.95165001E+02,
                       4.69302008E+00]),
                NASA([891.11, 3000.00],
                     [ 3.06571044E+00,  4.28505005E-03, -2.19325920E-06,
                       5.58882699E-10, -5.61246669E-14,  5.98557610E+02,
                       8.84564156E+00])))

#-------------------------------------------------------------------------------
# Reaction data
#-------------------------------------------------------------------------------

# Reaction 1
chebyshev_reaction('bQOOHg (+ M) <=> bRO2 (+ M)',
                   Tmin=180.0, Tmax=1500.0,
                   Pmin=(0.01, 'atm'), Pmax=(98.692, 'atm'),
                   coeffs=[[ 3.18900e-01,  1.04500e+00,  6.53200e-02, -8.10500e-03, -8.80300e-03, -5.88700e-04,  8.02800e-04,  2.48300e-04],
                           [-2.32000e+00,  1.47300e+00,  1.68700e-01, -1.36000e-02, -1.21600e-02, -1.37200e-03,  1.14000e-03,  3.75200e-04],
                           [-2.81100e+00,  4.37900e-01,  1.17800e-01,  1.52800e-02, -3.46400e-03, -1.16200e-03,  2.40600e-04,  6.88900e-05],
                           [-1.70100e+00, -1.32500e-01, -7.29400e-03,  2.38600e-02,  7.21800e-03, -5.53700e-05, -5.04700e-04, -1.90900e-04],
                           [-9.09400e-01, -1.95500e-01, -6.36700e-02,  3.45100e-03,  8.32900e-03,  1.83300e-03, -3.82800e-04, -2.81100e-04],
                           [-4.61600e-01, -9.15200e-02, -3.56300e-02, -7.84000e-03,  6.64500e-04,  1.24400e-03,  2.75700e-04, -4.95800e-05],
                           [-2.03000e-01, -3.64600e-02,  3.12100e-03, -3.36200e-04, -2.94300e-03, -1.13200e-03,  1.55900e-04,  2.26100e-04],
                           [-1.06200e-01, -3.91200e-02,  7.52900e-03,  7.88000e-03,  4.60100e-05, -1.57100e-03, -4.73900e-04,  1.18600e-04],
                           [-3.74200e-02, -4.85100e-02, -8.18600e-03,  5.13700e-03,  2.82200e-03,  7.99300e-05, -4.42000e-04, -1.45300e-04],
                           [-1.31200e-02, -3.71100e-02, -1.90800e-02, -2.42100e-03,  1.59700e-03,  1.16500e-03,  1.78400e-04, -1.29700e-04]])

# Reaction 2
chebyshev_reaction('bQOOHa (+ M) <=> bRO2 (+ M)',
                   Tmin=180.0, Tmax=1500.0,
                   Pmin=(0.01, 'atm'), Pmax=(98.692, 'atm'),
                   coeffs=[[ 1.39000e+00,  7.34100e-01,  3.43800e-02, -7.37300e-03, -2.20200e-03,  4.87800e-04,  1.52400e-04, -2.49900e-05],
                           [ 1.06700e-01,  1.12200e+00,  9.04300e-02, -1.13300e-02, -2.70400e-03,  4.93400e-04,  2.01000e-04, -2.88300e-05],
                           [-2.50300e+00,  4.37400e-01,  8.82800e-02,  5.69000e-03, -5.85000e-04, -1.16100e-04, -4.41700e-05, -6.71700e-06],
                           [-1.56100e+00, -6.00600e-02,  3.06700e-02,  1.88100e-02,  2.78400e-03, -4.84300e-04, -2.18100e-04, -5.06000e-06],
                           [-9.17100e-01, -2.04700e-01, -2.58200e-02,  1.27900e-02,  4.89700e-03,  1.28800e-05, -2.27900e-04, -2.07800e-05],
                           [-5.20700e-01, -1.45500e-01, -3.72900e-02, -5.63100e-04,  2.64600e-03,  6.57600e-04,  1.12200e-05, -2.57400e-05],
                           [-2.18800e-01, -6.45600e-02, -1.75500e-02, -5.43900e-03, -9.78100e-04,  2.89900e-04,  2.22000e-04,  2.68900e-05],
                           [-1.00200e-01, -2.80000e-02, -1.60100e-03, -1.20300e-03, -1.82500e-03, -5.27200e-04,  8.71400e-05,  6.99900e-05],
                           [-2.43600e-02, -2.17900e-02, -1.75600e-03,  2.82900e-03, -1.47100e-05, -6.08900e-04, -1.79700e-04,  1.91500e-05],
                           [-1.12900e-02, -1.94400e-02, -9.01200e-03,  1.74800e-03,  1.42600e-03,  7.96200e-05, -1.90800e-04, -6.16000e-05]])

# Reaction 3
chebyshev_reaction('bQOOH[O] (+ M) <=> bRO2 (+ M)',
                   Tmin=180.0, Tmax=1500.0,
                   Pmin=(0.01, 'atm'), Pmax=(98.692, 'atm'),
                   coeffs=[[ 4.90900e+00,  8.92300e-01, -9.36600e-02,  1.08600e-02,  1.67200e-03,  2.97400e-06,  3.84500e-05, -3.18200e-05],
                           [-2.00200e+00,  1.13900e+00, -1.26600e-02, -1.05300e-02,  5.36700e-03,  8.53500e-04, -3.06700e-04,  5.44300e-07],
                           [-3.11000e+00,  2.29900e-01,  9.48500e-02,  2.83500e-03, -2.52500e-03,  1.03900e-03,  1.64100e-04, -9.75700e-05],
                           [-1.87800e+00, -1.81500e-01,  2.41800e-02,  2.60400e-02,  3.36800e-04, -1.61100e-03,  2.03300e-04,  1.32700e-04],
                           [-9.70300e-01, -1.89100e-01, -4.64800e-02,  1.28700e-02,  7.11300e-03, -8.97300e-04, -6.62200e-04,  1.35300e-04],
                           [-4.69000e-01, -7.95800e-02, -4.38500e-02, -7.96700e-03,  4.24000e-03,  1.45800e-03, -4.23300e-04, -1.71700e-04],
                           [-2.20700e-01, -1.25500e-02, -7.83900e-03, -9.92000e-03, -2.37100e-03,  9.55000e-04,  4.69100e-04, -9.48700e-05],
                           [-1.05800e-01, -1.00100e-02,  1.26000e-02,  7.99500e-04, -3.41700e-03, -1.14200e-03,  4.08900e-04,  2.35000e-04],
                           [-4.93100e-02, -3.10100e-02,  6.03600e-03,  7.50100e-03,  4.88600e-04, -1.50000e-03, -3.70300e-04,  2.14100e-04],
                           [-1.03600e-02, -3.79200e-02, -1.06600e-02,  4.02900e-03,  3.33700e-03,  8.91200e-05, -6.18400e-04, -1.26300e-04]])

# Reaction 4
chebyshev_reaction('O2 + bR (+ M) <=> bRO2 (+ M)',
                   Tmin=180.0, Tmax=1500.0,
                   Pmin=(0.01, 'atm'), Pmax=(98.692, 'atm'),
                   coeffs=[[ 1.16200e+01,  5.01200e-01, -4.82500e-02,  5.07300e-03, -1.27500e-03,  3.27300e-04, -4.23500e-05,  1.18700e-05],
                           [-1.79900e+00,  8.68100e-01, -5.96000e-02,  2.24200e-03, -6.88300e-04,  1.83000e-04,  1.78600e-05, -1.09800e-07],
                           [-1.36400e+00,  5.71700e-01,  4.30500e-03, -5.78200e-03,  2.45700e-04,  3.26800e-05,  2.27000e-05, -3.68500e-06],
                           [-1.01600e+00,  2.75500e-01,  4.23000e-02, -4.20700e-03, -5.00500e-04,  3.90500e-05,  1.77600e-05, -8.16600e-06],
                           [-6.91000e-01,  7.05800e-02,  4.33900e-02,  2.17500e-03, -7.73700e-04, -1.68700e-04,  2.45000e-05, -6.44100e-06],
                           [-4.33300e-01, -3.60500e-02,  2.54100e-02,  5.90100e-03,  1.04400e-04, -3.49100e-04, -2.17700e-05,  3.65600e-06],
                           [-2.46000e-01, -7.40700e-02,  6.45200e-03,  5.24100e-03,  1.02800e-03, -2.37900e-04, -8.40500e-05,  2.89200e-06],
                           [-1.17900e-01, -7.37900e-02, -6.00900e-03,  2.46900e-03,  1.15000e-03,  2.81900e-05, -8.10300e-05, -8.92800e-06],
                           [-3.70100e-02, -5.55200e-02, -1.17900e-02, -1.82200e-04,  6.28500e-04,  1.93700e-04, -1.43000e-05, -1.25100e-05],
                           [ 7.96300e-03, -3.12900e-02, -1.28800e-02, -1.89900e-03,  1.68800e-06,  1.93300e-04,  5.14000e-05, -1.03400e-06]])
#  bRO2(+M) <=> bQOOHg(+M)                             1.000e+00 0.000     0.000
#      TCHEB/ 180.000   1500.000 /
#      PCHEB/ 0.010     98.692   /
#      CHEB/ 10 8/
#      CHEB/ -9.645e+00   1.045e+00    6.532e-02    -8.105e-03   -8.803e-03  /
#      CHEB/ -5.887e-04   8.028e-04    2.483e-04    6.651e+00    1.473e+00   /
#      CHEB/ 1.687e-01    -1.360e-02   -1.216e-02   -1.372e-03   1.140e-03   /
#      CHEB/ 3.752e-04    -2.665e+00   4.379e-01    1.178e-01    1.528e-02   /
#      CHEB/ -3.464e-03   -1.162e-03   2.406e-04    6.889e-05    -1.664e+00  /
#      CHEB/ -1.325e-01   -7.294e-03   2.386e-02    7.218e-03    -5.537e-05  /
#      CHEB/ -5.047e-04   -1.909e-04   -9.037e-01   -1.955e-01   -6.367e-02  /
#      CHEB/ 3.451e-03    8.329e-03    1.833e-03    -3.828e-04   -2.811e-04  /
#      CHEB/ -4.618e-01   -9.152e-02   -3.563e-02   -7.840e-03   6.645e-04   /
#      CHEB/ 1.244e-03    2.757e-04    -4.958e-05   -2.036e-01   -3.646e-02  /
#      CHEB/ 3.121e-03    -3.362e-04   -2.943e-03   -1.132e-03   1.559e-04   /
#      CHEB/ 2.261e-04    -1.067e-01   -3.912e-02   7.529e-03    7.880e-03   /
#      CHEB/ 4.601e-05    -1.571e-03   -4.739e-04   1.186e-04    -3.774e-02  /
#      CHEB/ -4.851e-02   -8.186e-03   5.137e-03    2.822e-03    7.993e-05   /
#      CHEB/ -4.420e-04   -1.453e-04   -1.331e-02   -3.711e-02   -1.908e-02  /
#      CHEB/ -2.421e-03   1.597e-03    1.165e-03    1.784e-04    -1.297e-04  /

# Reaction 5
chebyshev_reaction('bQOOHa (+ M) <=> bQOOHg (+ M)',
                   Tmin=180.0, Tmax=1500.0,
                   Pmin=(0.01, 'atm'), Pmax=(98.692, 'atm'),
                   coeffs=[[-1.08200e+01,  3.10900e-01,  8.66500e-02, -3.25200e-02, -1.51800e-02,  4.48100e-06,  1.39300e-03,  3.44200e-04],
                           [ 2.38300e+00,  2.72600e+00,  3.39800e-01, -4.03500e-02, -2.08600e-02, -1.42500e-03,  1.63500e-03,  4.39400e-04],
                           [-2.92500e+00,  3.16600e-01,  1.65200e-01,  5.69400e-02,  2.96200e-03, -3.62900e-03, -7.71700e-04,  1.17800e-05],
                           [-1.88300e+00, -4.47600e-01, -1.04600e-01,  3.96800e-02,  2.29700e-02,  1.87400e-03, -1.61200e-03, -6.32300e-04],
                           [-8.86800e-01, -2.39900e-01, -1.32300e-01, -2.08500e-02,  8.69400e-03,  5.18200e-03,  7.00300e-04, -3.90400e-04],
                           [-3.62400e-01, -2.33300e-03, -3.25200e-02, -2.43800e-02, -9.08700e-03, -2.55500e-05,  1.40000e-03,  4.91800e-04],
                           [-1.50600e-01,  3.47900e-02,  3.14400e-02,  2.35000e-03, -7.57400e-03, -4.01000e-03, -2.92300e-04,  4.70700e-04],
                           [-8.01900e-02, -9.16300e-03,  2.75100e-02,  1.73600e-02,  1.49000e-03, -2.44700e-03, -1.19300e-03, -1.35500e-04],
                           [-3.90700e-02, -4.92000e-02,  4.14000e-06,  1.26100e-02,  5.71200e-03,  6.42700e-04, -5.75300e-04, -3.56200e-04],
                           [-1.53300e-02, -5.15200e-02, -2.15900e-02,  1.14000e-03,  3.81800e-03,  1.91800e-03,  3.18000e-04, -1.42500e-04]])

# Reaction 6
chebyshev_reaction('bQOOH[O] (+ M) <=> bQOOHg (+ M)',
                   Tmin=180.0, Tmax=1500.0,
                   Pmin=(0.01, 'atm'), Pmax=(98.692, 'atm'),
                   coeffs=[[-6.12600e+00,  5.99600e-01, -1.13500e-01, -2.13400e-02, -5.27300e-03, -2.15300e-04,  1.18500e-03,  3.52700e-04],
                           [-9.95300e-01,  2.56600e+00,  2.95000e-01, -5.24200e-02, -2.26400e-02,  2.19600e-03,  2.11000e-03,  1.58300e-04],
                           [-3.44300e+00,  6.58700e-02,  2.08600e-01,  7.39000e-02, -5.77800e-03, -6.42100e-03, -1.76900e-04,  4.63400e-04],
                           [-2.03900e+00, -5.36000e-01, -1.06900e-01,  6.05600e-02,  2.66300e-02, -1.12200e-03, -3.12300e-03, -4.73900e-04],
                           [-9.10000e-01, -2.71200e-01, -1.67100e-01, -1.75300e-02,  1.72900e-02,  6.87600e-03, -5.10900e-04, -9.40700e-04],
                           [-3.29000e-01,  1.50600e-02, -6.04700e-02, -3.91800e-02, -6.63400e-03,  3.70800e-03,  2.05900e-03,  9.48900e-05],
                           [-1.19300e-01,  9.13300e-02,  3.27400e-02, -1.15800e-02, -1.33200e-02, -2.86700e-03,  1.20200e-03,  7.64000e-04],
                           [-6.64900e-02,  3.16800e-02,  4.98100e-02,  1.61500e-02, -4.38400e-03, -4.64100e-03, -7.36000e-04,  4.63100e-04],
                           [-5.08900e-02, -4.48700e-02,  1.81400e-02,  2.03300e-02,  5.29800e-03, -1.78000e-03, -1.43800e-03, -1.34200e-04],
                           [-2.67700e-02, -6.93000e-02, -1.77000e-02,  7.27800e-03,  7.32500e-03,  1.59300e-03, -7.28500e-04, -4.41000e-04]])

# Reaction 7
chebyshev_reaction('O2 + bR (+ M) <=> bQOOHg (+ M)',
                   Tmin=180.0, Tmax=1500.0,
                   Pmin=(0.01, 'atm'), Pmax=(98.692, 'atm'),
                   coeffs=[[ 1.95800e+00,  1.56500e+00, -6.35300e-02, -2.13300e-01, -1.54300e-02,  3.96300e-02,  3.97300e-03, -9.73400e-03],
                           [-2.22100e+00,  1.06700e+00,  4.17500e-01,  1.67500e-01, -6.16700e-02, -4.99700e-02,  8.62800e-03,  1.45100e-02],
                           [-1.74100e+00,  1.19900e-01, -3.61000e-02,  1.01300e-01,  4.79700e-02, -8.68600e-03, -1.50600e-02, -1.00800e-03],
                           [-1.09700e+00, -1.63500e-02, -1.42400e-01, -1.48300e-02,  3.25600e-02,  1.64100e-02, -2.28300e-03, -5.20500e-03],
                           [-5.70100e-01,  6.35400e-02, -6.45700e-02, -5.06900e-02, -4.66200e-03,  1.04800e-02,  5.55600e-03, -7.59400e-04],
                           [-2.67800e-01,  9.32800e-02,  2.67900e-02, -2.65000e-02, -1.84700e-02, -1.48800e-03,  3.86600e-03,  1.85500e-03],
                           [-1.31500e-01,  4.49400e-02,  5.77300e-02,  7.39300e-03, -1.09000e-02, -6.46700e-03, -2.64100e-04,  1.43700e-03],
                           [-7.12600e-02, -2.30200e-02,  4.01400e-02,  2.13600e-02,  3.79200e-04, -4.39600e-03, -1.96000e-03,  1.18700e-04],
                           [-3.60900e-02, -6.56000e-02,  5.63000e-03,  1.62000e-02,  6.45500e-03, -5.22400e-04, -1.69100e-03, -5.68000e-04],
                           [-8.25900e-03, -6.39900e-02, -1.69500e-02,  3.85000e-03,  5.12200e-03,  1.74100e-03, -3.58300e-04, -5.51900e-04]])
#  bRO2(+M) <=> bQOOHa(+M)                             1.000e+00 0.000     0.000
#      TCHEB/ 180.000   1500.000 /
#      PCHEB/ 0.010     98.692   /
#      CHEB/ 10 8/
#      CHEB/ -4.346e+00   7.341e-01    3.438e-02    -7.373e-03   -2.202e-03  /
#      CHEB/ 4.878e-04    1.524e-04    -2.499e-05   5.525e+00    1.122e+00   /
#      CHEB/ 9.043e-02    -1.133e-02   -2.704e-03   4.934e-04    2.010e-04   /
#      CHEB/ -2.883e-05   -2.448e+00   4.374e-01    8.828e-02    5.690e-03   /
#      CHEB/ -5.850e-04   -1.161e-04   -4.417e-05   -6.717e-06   -1.560e+00  /
#      CHEB/ -6.006e-02   3.067e-02    1.881e-02    2.784e-03    -4.843e-04  /
#      CHEB/ -2.181e-04   -5.060e-06   -9.219e-01   -2.047e-01   -2.582e-02  /
#      CHEB/ 1.279e-02    4.897e-03    1.288e-05    -2.279e-04   -2.078e-05  /
#      CHEB/ -5.235e-01   -1.455e-01   -3.729e-02   -5.631e-04   2.646e-03   /
#      CHEB/ 6.576e-04    1.122e-05    -2.574e-05   -2.202e-01   -6.456e-02  /
#      CHEB/ -1.755e-02   -5.439e-03   -9.781e-04   2.899e-04    2.220e-04   /
#      CHEB/ 2.689e-05    -1.010e-01   -2.800e-02   -1.601e-03   -1.203e-03  /
#      CHEB/ -1.825e-03   -5.272e-04   8.714e-05    6.999e-05    -2.471e-02  /
#      CHEB/ -2.179e-02   -1.756e-03   2.829e-03    -1.471e-05   -6.089e-04  /
#      CHEB/ -1.797e-04   1.915e-05    -1.141e-02   -1.944e-02   -9.012e-03  /
#      CHEB/ 1.748e-03    1.426e-03    7.962e-05    -1.908e-04   -6.160e-05  /
#  bQOOHg(+M) <=> bQOOHa(+M)                           1.000e+00 0.000     0.000
#      TCHEB/ 180.000   1500.000 /
#      PCHEB/ 0.010     98.692   /
#      CHEB/ 10 8/
#      CHEB/ -6.592e+00   3.109e-01    8.665e-02    -3.252e-02   -1.518e-02  /
#      CHEB/ 4.481e-06    1.393e-03    3.442e-04    -1.169e+00   2.726e+00   /
#      CHEB/ 3.398e-01    -4.035e-02   -2.086e-02   -1.425e-03   1.635e-03   /
#      CHEB/ 4.394e-04    -3.015e+00   3.166e-01    1.652e-01    5.694e-02   /
#      CHEB/ 2.962e-03    -3.629e-03   -7.717e-04   1.178e-05    -1.919e+00  /
#      CHEB/ -4.476e-01   -1.046e-01   3.968e-02    2.297e-02    1.874e-03   /
#      CHEB/ -1.612e-03   -6.323e-04   -8.974e-01   -2.399e-01   -1.323e-01  /
#      CHEB/ -2.085e-02   8.694e-03    5.182e-03    7.003e-04    -3.904e-04  /
#      CHEB/ -3.650e-01   -2.333e-03   -3.252e-02   -2.438e-02   -9.087e-03  /
#      CHEB/ -2.555e-05   1.400e-03    4.918e-04    -1.513e-01   3.479e-02   /
#      CHEB/ 3.144e-02    2.350e-03    -7.574e-03   -4.010e-03   -2.923e-04  /
#      CHEB/ 4.707e-04    -8.046e-02   -9.163e-03   2.751e-02    1.736e-02   /
#      CHEB/ 1.490e-03    -2.447e-03   -1.193e-03   -1.355e-04   -3.909e-02  /
#      CHEB/ -4.920e-02   4.140e-06    1.261e-02    5.712e-03    6.427e-04   /
#      CHEB/ -5.753e-04   -3.562e-04   -1.527e-02   -5.152e-02   -2.159e-02  /
#      CHEB/ 1.140e-03    3.818e-03    1.918e-03    3.180e-04    -1.425e-04  /

# Reaction 8
chebyshev_reaction('bQOOH[O] (+ M) <=> bQOOHa (+ M)',
                   Tmin=180.0, Tmax=1500.0,
                   Pmin=(0.01, 'atm'), Pmax=(98.692, 'atm'),
                   coeffs=[[-1.78000e+00,  1.96300e-01, -1.61800e-01, -8.22800e-03,  4.18700e-03, -1.84400e-04,  9.10200e-05,  4.08400e-05],
                           [-1.16800e+00,  2.24400e+00,  1.82000e-01, -5.12700e-02, -6.57100e-03,  4.38000e-03,  1.80500e-04, -3.34700e-04],
                           [-3.26600e+00,  1.93700e-01,  1.95600e-01,  4.87000e-02, -8.18400e-03, -3.55400e-03,  6.64700e-04,  3.00600e-04],
                           [-2.00800e+00, -3.99300e-01, -4.32200e-02,  5.60700e-02,  1.48900e-02, -3.24800e-03, -1.50200e-03,  2.10800e-04],
                           [-9.74500e-01, -2.63700e-01, -1.26500e-01, -1.48700e-03,  1.47400e-02,  3.15200e-03, -8.73400e-04, -4.09000e-04],
                           [-4.09200e-01, -3.81100e-02, -6.87300e-02, -2.88200e-02, -1.05100e-03,  3.37300e-03,  9.47000e-04, -1.66200e-04],
                           [-1.64400e-01,  5.38400e-02,  7.93200e-03, -1.54600e-02, -9.42900e-03, -8.08200e-04,  1.07500e-03,  3.37700e-04],
                           [-7.65700e-02,  3.09900e-02,  3.66800e-02,  7.82900e-03, -5.52400e-03, -3.37800e-03, -1.12500e-04,  4.12700e-04],
                           [-4.51000e-02, -2.39400e-02,  1.97300e-02,  1.69500e-02,  2.62400e-03, -2.18500e-03, -1.06500e-03,  5.25400e-05],
                           [-1.86200e-02, -5.14200e-02, -1.04900e-02,  9.21900e-03,  6.50300e-03,  7.88900e-04, -8.64200e-04, -3.49800e-04]])

# Reaction 9
chebyshev_reaction('O2 + bR (+ M) <=> bQOOHa (+ M)',
                   Tmin=180.0, Tmax=1500.0,
                   Pmin=(0.01, 'atm'), Pmax=(98.692, 'atm'),
                   coeffs=[[ 5.79400e+00,  7.93400e-01, -4.31600e-02, -1.34200e-01, -2.29100e-02,  1.85100e-02,  8.13200e-03, -2.42400e-03],
                           [-1.90700e+00,  1.00900e+00,  1.78800e-01,  1.20700e-01, -3.76100e-03, -2.71600e-02, -7.66600e-03,  5.23800e-03],
                           [-1.54700e+00,  3.72000e-01, -3.00100e-02,  3.59000e-02,  2.65000e-02,  4.96200e-03, -4.09100e-03, -3.48400e-03],
                           [-1.07900e+00,  1.38800e-01, -5.23300e-02, -1.76500e-02,  7.42700e-03,  7.71700e-03,  2.80900e-03, -7.51600e-04],
                           [-6.52700e-01,  6.65100e-02, -1.13600e-02, -2.20100e-02, -6.80200e-03,  7.90200e-04,  2.38100e-03,  1.24700e-03],
                           [-3.62400e-01,  3.14900e-02,  2.11400e-02, -6.69800e-03, -7.61900e-03, -2.85400e-03, -2.94800e-05,  7.31400e-04],
                           [-1.89800e-01, -3.04400e-03,  2.98000e-02,  6.91200e-03, -2.89600e-03, -2.70000e-03, -1.01700e-03, -1.04900e-04],
                           [-9.04700e-02, -3.41500e-02,  1.90300e-02,  1.21300e-02,  1.56700e-03, -1.10900e-03, -8.32200e-04, -3.68900e-04],
                           [-3.57700e-02, -5.11500e-02,  3.71000e-04,  9.34800e-03,  3.75600e-03,  4.60200e-04, -3.32300e-04, -2.89300e-04],
                           [-1.60300e-03, -4.75000e-02, -1.43200e-02,  2.51800e-03,  3.08200e-03,  1.26900e-03,  1.90300e-04, -8.45400e-05]])
#  bRO2(+M) <=> bQOOH[O](+M)                           1.000e+00 0.000     0.000
#      TCHEB/ 180.000   1500.000 /
#      PCHEB/ 0.010     98.692   /
#      CHEB/ 10 8/
#      CHEB/ -6.171e+00   8.923e-01    -9.366e-02   1.086e-02    1.672e-03   /
#      CHEB/ 2.974e-06    3.845e-05    -3.182e-05   7.171e+00    1.139e+00   /
#      CHEB/ -1.266e-02   -1.053e-02   5.367e-03    8.535e-04    -3.067e-04  /
#      CHEB/ 5.443e-07    -3.116e+00   2.299e-01    9.485e-02    2.835e-03   /
#      CHEB/ -2.525e-03   1.039e-03    1.641e-04    -9.757e-05   -1.899e+00  /
#      CHEB/ -1.815e-01   2.418e-02    2.604e-02    3.368e-04    -1.611e-03  /
#      CHEB/ 2.033e-04    1.327e-04    -9.811e-01   -1.891e-01   -4.648e-02  /
#      CHEB/ 1.287e-02    7.113e-03    -8.973e-04   -6.622e-04   1.353e-04   /
#      CHEB/ -4.730e-01   -7.958e-02   -4.385e-02   -7.967e-03   4.240e-03   /
#      CHEB/ 1.458e-03    -4.233e-04   -1.717e-04   -2.223e-01   -1.255e-02  /
#      CHEB/ -7.839e-03   -9.920e-03   -2.371e-03   9.550e-04    4.691e-04   /
#      CHEB/ -9.487e-05   -1.064e-01   -1.001e-02   1.260e-02    7.995e-04   /
#      CHEB/ -3.417e-03   -1.142e-03   4.089e-04    2.350e-04    -4.949e-02  /
#      CHEB/ -3.101e-02   6.036e-03    7.501e-03    4.886e-04    -1.500e-03  /
#      CHEB/ -3.703e-04   2.141e-04    -1.035e-02   -3.792e-02   -1.066e-02  /
#      CHEB/ 4.029e-03    3.337e-03    8.912e-05    -6.184e-04   -1.263e-04  /
#  bQOOHg(+M) <=> bQOOH[O](+M)                         1.000e+00 0.000     0.000
#      TCHEB/ 180.000   1500.000 /
#      PCHEB/ 0.010     98.692   /
#      CHEB/ 10 8/
#      CHEB/ -7.243e+00   5.996e-01    -1.135e-01   -2.134e-02   -5.273e-03  /
#      CHEB/ -2.153e-04   1.185e-03    3.527e-04    -7.929e-01   2.566e+00   /
#      CHEB/ 2.950e-01    -5.242e-02   -2.264e-02   2.196e-03    2.110e-03   /
#      CHEB/ 1.583e-04    -3.595e+00   6.587e-02    2.086e-01    7.390e-02   /
#      CHEB/ -5.778e-03   -6.421e-03   -1.769e-04   4.634e-04    -2.097e+00  /