units(length='cm', time='s', quantity='mol', act_energy='kcal/mol')

ideal_gas(name='gas',
          elements="H D T C Ci O Oi N Ne Ar He Si S F Cl Br I X",
          species="""propene3ol       OH               disub_c4ether
                     H2O              disub_epoxy      gQOOHa
                     propene1ol       gQOOHb           ipropylOOH
                     galdoxy          galkene          CH2O
                     O2               gRO2             gQOOHg
                     gR               galdol           monosub_c4ether
                     HO2              gQOOH[O]""",
          reactions='all',
          initial_state=state(temperature=300.0, pressure=OneAtm))

#-------------------------------------------------------------------------------
# Element data
#-------------------------------------------------------------------------------

element(symbol='Ci', atomic_mass=13.003)
element(symbol='D', atomic_mass=2.014)
element(symbol='Oi', atomic_mass=18.0)
element(symbol='T', atomic_mass=3.016)
element(symbol='X', atomic_mass=195.083)
#-------------------------------------------------------------------------------
# Species data
#-------------------------------------------------------------------------------

species(name='propene3ol',
        atoms='C:3 H:6 O:1',
        thermo=(NASA([10.00, 444.81],
                     [ 3.92769709E+00,  4.89977303E-03,  1.13094874E-04,
                      -2.59008187E-07,  1.86205760E-10, -1.75098120E+04,
                       9.90805416E+00]),
                NASA([444.81, 3000.00],
                     [ 2.61720343E+00,  3.01777872E-02, -1.76511625E-05,
                       5.14864061E-09, -5.91153761E-13, -1.75267125E+04,
                       1.36683107E+01])))

species(name='OH',
        atoms='H:1 O:1',
        thermo=(NASA([10.00, 984.14],
                     [ 3.49686242E+00,  1.83973160E-04, -9.97634499E-07,
                       1.56942783E-09, -6.10128175E-13,  3.41673934E+03,
                       1.48093120E+00]),
                NASA([984.14, 3000.00],
                     [ 3.45221464E+00, -2.95124034E-04,  7.39418622E-07,
                      -2.89309866E-10,  3.53041498E-14,  3.45751599E+03,
                       1.85813897E+00])))

species(name='disub_c4ether',
        atoms='C:4 H:8 O:2',
        thermo=(NASA([10.00, 413.50],
                     [ 3.78241323E+00,  1.89501763E-02,  8.65302396E-05,
                      -1.80580575E-07,  1.13656264E-10, -4.06179359E+04,
                       1.09982450E+01]),
                NASA([413.50, 3000.00],
                     [ 4.29420885E-01,  5.13851903E-02, -3.11292293E-05,
                       9.11498284E-09, -1.03192718E-12, -4.03406415E+04,
                       2.42134976E+01])))

species(name='H2O',
        atoms='H:2 O:1',
        thermo=(NASA([10.00, 773.84],
                     [ 4.00473541E+00, -2.39729134E-04,  8.11862955E-07,
                       1.47891862E-09, -1.19783539E-12, -3.03533807E+04,
                      -9.96254147E-02]),
                NASA([773.84, 3000.00],
                     [ 3.52133374E+00,  1.05377009E-03,  6.40722099E-07,
                      -3.86240235E-10,  5.49243294E-14, -3.02424794E+04,
                       2.34173094E+00])))

species(name='disub_epoxy',
        atoms='C:4 H:8 O:2',
        thermo=(NASA([10.00, 549.41],
                     [ 3.89863211E+00,  5.97532637E-03,  1.66685676E-04,
                      -3.10743768E-07,  1.78330192E-10, -3.69375461E+04,
                       1.13847308E+01]),
                NASA([549.41, 3000.00],
                     [-6.40277648E-01,  6.05960003E-02, -4.13427220E-05,
                       1.31555461E-08, -1.57685017E-12, -3.67644292E+04,
                       2.76005436E+01])))

species(name='gQOOHa',
        atoms='C:4 H:9 O:3',
        thermo=(NASA([10.00, 160.74],
                     [ 3.80808147E+00,  2.31043884E-02,  5.26945984E-04,
                      -3.11500696E-06,  6.03881958E-09, -2.40035306E+04,
                       1.17645316E+01]),
                NASA([160.74, 3000.00],
                     [ 2.90630300E+00,  6.50241173E-02, -4.60073244E-05,
                       1.51330930E-08, -1.87074267E-12, -2.39997060E+04,
                       1.36838819E+01])))

species(name='propene1ol',
        atoms='C:3 H:6 O:1',
        thermo=(NASA([10.00, 459.42],
                     [ 3.91245344E+00,  5.85800161E-03,  1.15412006E-04,
                      -2.68014417E-07,  1.91800131E-10, -2.00999420E+04,
                       8.14807684E+00]),
                NASA([459.42, 3000.00],
                     [ 3.14049093E+00,  2.95550898E-02, -1.73843684E-05,
                       5.11506211E-09, -5.92966137E-13, -2.02081645E+04,
                       9.32215170E+00])))

species(name='gQOOHb',
        atoms='C:4 H:9 O:3',
        thermo=(NASA([10.00, 1018.67],
                     [ 3.99028351E+00,  4.29665712E-02,  2.28338778E-05,
                      -5.67914439E-08,  2.29383258E-11, -2.24762360E+04,
                       1.20326731E+01]),
                NASA([1018.67, 3000.00],
                     [ 1.38304153E+01,  3.88527019E-02, -2.19473905E-05,
                       5.78719895E-09, -5.85097740E-13, -2.62723208E+04,
                      -4.44147388E+01])))

species(name='ipropylOOH',
        atoms='C:3 H:7 O:2',
        thermo=(NASA([10.00, 405.01],
                     [ 3.30075623E+00,  7.58672756E-02, -3.35754269E-04,
                       8.05972164E-07, -6.68864582E-10, -1.01204149E+03,
                       1.43372849E+01]),
                NASA([405.01, 3000.00],
                     [ 2.51742509E+00,  3.72760950E-02, -2.12450220E-05,
                       5.83593926E-09, -6.22110649E-13, -5.68633882E+02,
                       2.20991392E+01])))

species(name='galdoxy',
        atoms='C:4 H:7 O:2',
        thermo=(NASA([10.00, 209.62],
                     [ 3.82641108E+00,  1.84758886E-02,  3.43073800E-04,
                      -1.82817005E-06,  2.98516720E-09, -1.64608042E+04,
                       1.17972706E+01]),
                NASA([209.62, 3000.00],
                     [ 4.22049016E+00,  4.03370149E-02, -2.36129482E-05,
                       6.72979114E-09, -7.47862493E-13, -1.65418740E+04,
                       8.97211724E+00])))

species(name='galkene',
        atoms='C:4 H:8 O:1',
        thermo=(NASA([10.00, 383.47],
                     [ 3.84035604E+00,  1.20378740E-02,  1.87486319E-04,
                      -5.44759148E-07,  4.80711015E-10, -1.87312558E+04,
                       1.02570291E+01]),
                NASA([383.47, 3000.00],
                     [ 4.00413385E+00,  3.79025144E-02, -2.15435710E-05,
                       6.15213311E-09, -6.97446345E-13, -1.89465451E+04,
                       6.98052628E+00])))

species(name='CH2O',
        atoms='C:1 H:2 O:1',
        thermo=(NASA([10.00, 601.31],
                     [ 4.03190845E+00, -1.93233367E-03,  8.89743345E-06,
                       2.98105926E-09, -7.90813886E-12, -1.42276270E+04,
                       3.47574660E+00]),
                NASA([601.31, 3000.00],
                     [ 1.40134195E+00,  9.48858016E-03, -4.43088317E-06,
                       9.48452194E-10, -7.43790219E-14, -1.38013869E+04,
                       1.57423780E+01])))

species(name='O2',
        atoms='O:2',
        thermo=(NASA([10.00, 605.96],
                     [ 3.50743498E+00, -4.43860349E-04,  1.45938058E-06,
                       1.61509333E-09, -2.32050052E-12, -9.24756224E+02,
                       4.72183634E+00]),
                NASA([605.96, 3000.00],
                     [ 2.87462882E+00,  2.17840991E-03, -1.18262921E-06,
                       2.86910493E-10, -2.53297146E-14, -8.19517838E+02,
                       7.69331810E+00])))

species(name='gRO2',
        atoms='C:4 H:9 O:3',
        thermo=(NASA([10.00, 177.33],
                     [ 3.70632176E+00,  3.49733664E-02,  4.64036392E-04,
                      -3.18637835E-06,  6.38178607E-09, -2.72709928E+04,
                       1.24459269E+01]),
                NASA([177.33, 3000.00],
                     [ 4.82062697E+00,  5.17179689E-02, -3.18386818E-05,
                       9.52247045E-09, -1.10180288E-12, -2.73763634E+04,
                       7.14082953E+00])))

species(name='gQOOHg',
        atoms='C:4 H:9 O:3',
        thermo=(NASA([10.00, 475.03],
                     [ 3.42273720E+00,  4.98344215E-02,  6.47820920E-05,
                      -2.49842966E-07,  1.98636537E-10, -2.19266536E+04,
                       1.41578583E+01]),
                NASA([475.03, 3000.00],
                     [ 5.94049074E+00,  5.53778585E-02, -3.71708255E-05,
                       1.17540477E-08, -1.40812095E-12, -2.24676079E+04,
                       7.09201218E-01])))

species(name='gR',
        atoms='C:4 H:9 O:1',
        thermo=(NASA([10.00, 638.24],
                     [ 3.37074633E+00,  5.17529751E-02, -6.54872940E-05,
                       6.88084237E-08, -3.21569794E-11, -1.06349399E+04,
                       1.14339669E+01]),
                NASA([638.24, 3000.00],
                     [ 3.99410860E+00,  4.06314915E-02, -2.23932510E-05,
                       6.08356263E-09, -6.49884708E-13, -1.05675652E+04,
                       9.85769960E+00])))

species(name='galdol',
        atoms='C:4 H:8 O:2',
        thermo=(NASA([10.00, 506.68],
                     [ 3.85380874E+00,  9.21272695E-03,  1.86712348E-04,
                      -3.96417049E-07,  2.55528268E-10, -4.53427700E+04,
                       1.24312743E+01]),
                NASA([506.68, 3000.00],
                     [ 1.49710213E+00,  5.65979142E-02, -3.87709084E-05,
                       1.23682052E-08, -1.48287964E-12, -4.54733794E+04,
                       1.85531759E+01])))

species(name='monosub_c4ether',
        atoms='C:4 H:8 O:2',
        thermo=(NASA([10.00, 380.36],
                     [ 3.47743996E+00,  6.08051311E-02, -2.78518945E-04,
                       8.23182713E-07, -7.87158031E-10, -3.27516850E+04,
                       1.06415154E+01]),
                NASA([380.36, 3000.00],
                     [-1.09346901E+00,  5.35985968E-02, -3.21081420E-05,
                       9.20818293E-09, -1.01830294E-12, -3.20041249E+04,
                       3.35312368E+01])))

species(name='HO2',
        atoms='H:1 O:2',
        thermo=(NASA([10.00, 891.11],
                     [ 4.02887004E+00, -1.75769289E-03,  1.08726004E-05,
                      -1.13812972E-08,  3.90113097E-12,  4.95165001E+02,
                       4.69302008E+00]),
                NASA([891.11, 3000.00],
                     [ 3.06571044E+00,  4.28505005E-03, -2.19325920E-06,
                       5.58882699E-10, -5.61246669E-14,  5.98557610E+02,
                       8.84564156E+00])))

species(name='gQOOH[O]',
        atoms='C:4 H:9 O:3',
        thermo=(NASA([10.00, 535.23],
                     [ 3.83107445E+00,  1.02302002E-02,  2.29377261E-04,
                      -4.59095575E-07,  2.77765018E-10, -1.94512689E+04,
                       1.41034859E+01]),
                NASA([535.23, 3000.00],
                     [-4.19283096E-01,  7.69784620E-02, -5.57279000E-05,
                       1.81378295E-08, -2.18295635E-12, -1.94973823E+04,
                       2.72711816E+01])))

#-------------------------------------------------------------------------------
# Reaction data
#-------------------------------------------------------------------------------

# Reaction 1
chebyshev_reaction('gQOOH[O] (+ M) <=> gRO2 (+ M)',
                   Tmin=180.0, Tmax=1500.0,
                   Pmin=(0.01, 'atm'), Pmax=(98.692, 'atm'),
                   coeffs=[[ 5.34300e+00,  1.15900e+00, -1.42900e-01, -4.00800e-03,  2.72000e-03,  7.57400e-04,  8.52500e-05,  2.35500e-06],
                           [-3.88800e+00,  8.74500e-01,  4.55000e-02, -2.56400e-02, -3.21400e-03,  2.37300e-03,  7.19100e-04, -1.42500e-04],
                           [-3.14500e+00, -1.59700e-01,  2.14800e-02,  2.25700e-02,  9.81000e-04, -1.09700e-03, -2.68000e-05,  6.33400e-05],
                           [-1.69400e+00, -2.49900e-01, -6.23300e-02,  5.76800e-03,  8.88200e-03,  1.40900e-03, -7.84600e-04, -3.14200e-04],
                           [-7.82800e-01, -7.71600e-02, -3.85700e-02, -9.91600e-03,  1.76900e-03,  1.68100e-03,  1.51300e-04, -1.97800e-04],
                           [-3.65500e-01, -4.68100e-03,  6.63200e-03,  8.71000e-04, -1.58100e-03, -1.13000e-03, -9.26300e-05,  1.72000e-04],
                           [-1.86500e-01, -2.18000e-02,  1.13400e-02,  9.32300e-03,  1.90700e-03, -1.21500e-03, -7.29500e-04, -7.15200e-07],
                           [-1.02300e-01, -3.75100e-02, -7.10600e-03,  3.33000e-03,  3.03700e-03,  6.18900e-04, -2.94500e-04, -1.72200e-04],
                           [-4.12300e-02, -2.62200e-02, -1.70900e-02, -4.68100e-03,  2.11100e-04,  8.12000e-04,  3.76000e-04,  2.86200e-05],
                           [-1.62100e-03, -7.12700e-03, -1.07200e-02, -5.67500e-03, -2.06300e-03, -2.11500e-04,  2.45800e-04,  1.75100e-04]])

# Reaction 2
chebyshev_reaction('gQOOHa (+ M) <=> gRO2 (+ M)',
                   Tmin=180.0, Tmax=1500.0,
                   Pmin=(0.01, 'atm'), Pmax=(98.692, 'atm'),
                   coeffs=[[ 1.33100e+00,  1.25600e+00, -1.32000e-01,  1.78300e-02, -8.83300e-03,  3.17200e-03, -1.51000e-04, -1.83300e-04],
                           [-2.54600e-01,  1.27400e+00,  1.13500e-01, -5.57800e-02,  5.41600e-03,  1.41700e-03, -1.41300e-04, -1.19600e-04],
                           [-2.77900e+00,  1.36000e-01,  1.25000e-01,  1.30300e-02, -3.47400e-03, -1.69000e-03,  3.38500e-04,  1.89300e-04],
                           [-1.54500e+00, -3.12200e-01,  5.96200e-03,  3.39400e-02,  5.93600e-03, -2.97800e-03, -4.49900e-04,  2.78800e-04],
                           [-8.51200e-01, -2.42800e-01, -6.65500e-02,  1.19300e-02,  6.46400e-03,  9.69500e-04, -3.76400e-04, -2.10900e-04],
                           [-3.46700e-01, -1.16400e-01, -3.31700e-02, -1.28200e-02,  4.21400e-04,  1.97800e-03,  5.63400e-04, -1.95800e-04],
                           [-1.83800e-01, -1.89900e-02, -1.01000e-02, -5.15600e-03, -4.06200e-03, -1.33400e-04,  5.47700e-04,  1.51800e-04],
                           [-6.60600e-02, -1.07600e-02,  3.38300e-03,  2.39100e-03, -7.29100e-04, -1.30400e-03, -3.11000e-04,  1.61100e-04],
                           [-2.33400e-02, -1.72600e-02, -2.70800e-03,  3.29600e-03,  2.62700e-03, -2.76800e-04, -5.63200e-04, -1.05500e-04],
                           [-1.98400e-02, -5.49000e-03, -1.45800e-02,  3.66800e-04,  2.02100e-03,  9.16300e-04, -6.26400e-05, -1.77900e-04]])

# Reaction 3
chebyshev_reaction('gQOOHg (+ M) <=> gRO2 (+ M)',
                   Tmin=180.0, Tmax=1500.0,
                   Pmin=(0.01, 'atm'), Pmax=(98.692, 'atm'),
                   coeffs=[[ 3.72600e+00,  6.87000e-01, -5.27100e-02,  1.03500e-02,  1.51400e-03, -1.97900e-04, -1.58800e-04, -1.01100e-05],
                           [-1.65200e-01,  9.99700e-01, -1.51600e-02,  5.35100e-03,  3.86600e-03, -1.79200e-04, -2.89800e-04, -2.85400e-05],
                           [-2.53800e+00,  3.00400e-01,  9.30500e-02,  8.93400e-04,  1.13500e-04,  6.77000e-04, -1.30500e-04, -6.43500e-05],
                           [-1.77500e+00, -1.63200e-01,  7.75000e-02,  1.69000e-02, -1.81800e-03, -4.55700e-05,  2.32800e-04, -4.03300e-05],
                           [-9.82100e-01, -2.73200e-01, -2.35400e-03,  2.01800e-02,  2.52900e-03, -8.25600e-04,  7.60200e-05,  6.46700e-05],
                           [-4.77700e-01, -1.94500e-01, -4.89700e-02,  3.47000e-03,  5.53700e-03,  3.67300e-04, -2.84600e-04,  1.71700e-05],
                           [-1.98300e-01, -8.52200e-02, -4.32400e-02, -1.22300e-02,  2.20500e-03,  1.76200e-03, -2.13000e-05, -1.17400e-04],
                           [-7.34300e-02, -1.42500e-02, -1.62400e-02, -1.32600e-02, -3.15300e-03,  1.18000e-03,  5.49000e-04, -4.33400e-05],
                           [-4.33400e-03,  1.11100e-02,  3.75600e-03, -4.33600e-03, -4.73700e-03, -6.76700e-04,  5.67300e-04,  1.93300e-04],
                           [ 4.38400e-03,  1.08500e-02,  7.69200e-03,  3.94100e-03, -2.06700e-03, -1.67300e-03, -3.10300e-05,  2.61700e-04]])

# Reaction 4
chebyshev_reaction('gQOOHb (+ M) <=> gRO2 (+ M)',
                   Tmin=180.0, Tmax=1500.0,
                   Pmin=(0.01, 'atm'), Pmax=(98.692, 'atm'),
                   coeffs=[[-5.57100e+00,  2.78600e+00, -1.50600e-01,  1.56600e-02,  2.93500e-02, -4.18200e-03, -4.62400e-03,  9.38200e-04],
                           [ 1.97000e-01,  6.05400e-02,  4.20800e-01,  5.78700e-02, -2.83800e-02,  4.60400e-03,  3.64200e-03, -1.83400e-03],
                           [-1.62100e+00, -1.22300e-01, -1.68400e-01, -1.38300e-02,  2.25900e-03,  1.22500e-03,  1.09000e-03,  5.01600e-04],
                           [-9.48600e-01, -2.07900e-01, -1.43100e-01, -2.31400e-02,  4.96500e-04,  3.64700e-04,  7.65100e-04,  5.08600e-04],
                           [-7.87400e-01,  5.21000e-02, -3.68800e-02, -1.99300e-02,  4.56100e-03,  2.70800e-03, -9.44600e-04, -2.14100e-04],
                           [-4.63700e-01, -5.00700e-03,  2.93700e-02,  9.85500e-03, -2.61200e-03, -1.71400e-03,  8.46200e-04,  1.76800e-04],
                           [-3.59800e-01,  7.78600e-02,  2.49900e-02, -4.44400e-03, -1.44100e-03, -4.04600e-06, -3.80500e-04, -6.45200e-05],
                           [-1.32500e-01, -2.32000e-02,  1.17100e-02,  6.65400e-05, -2.16300e-03, -9.48600e-04,  8.50900e-05,  6.21700e-05],
                           [-1.77900e-02, -4.98000e-02, -7.08600e-03,  2.63800e-03, -7.75100e-04, -5.26000e-04,  8.32700e-05,  4.15200e-05],
                           [-1.12400e-02, -4.65600e-03, -1.28600e-02, -3.19500e-03,  1.94000e-03,  7.28100e-04, -4.64100e-04, -9.97500e-05]])

# Reaction 5
chebyshev_reaction('O2 + gR (+ M) <=> gRO2 (+ M)',
                   Tmin=180.0, Tmax=1500.0,
                   Pmin=(0.01, 'atm'), Pmax=(98.692, 'atm'),
                   coeffs=[[ 1.20800e+01,  6.23200e-01, -7.81100e-02,  1.52600e-02, -4.77800e-03,  1.27900e-03, -2.62400e-04,  3.60100e-05],
                           [-2.47500e+00,  9.58000e-01, -5.75000e-02,  1.94200e-04,  1.85000e-04, -3.13200e-04,  1.08600e-04, -2.38800e-05],
                           [-1.58300e+00,  5.13500e-01,  2.92900e-02, -7.52800e-03,  1.28400e-04, -2.11000e-05,  2.12200e-05, -3.31700e-05],
                           [-9.99100e-01,  1.74300e-01,  5.14300e-02, -1.01100e-03, -5.17700e-04, -2.15100e-04,  9.93800e-05, -3.26600e-05],
                           [-6.04400e-01, -1.88500e-04,  3.35300e-02,  4.30600e-03,  4.14000e-04, -3.83100e-04,  3.71100e-05,  1.40300e-05],
                           [-3.44300e-01, -6.32500e-02,  1.14300e-02,  3.91000e-03,  1.31300e-03, -1.44700e-04, -6.20500e-05,  2.18100e-05],
                           [-1.78900e-01, -6.98800e-02, -2.75700e-03,  1.62100e-03,  1.15000e-03,  1.62000e-04, -6.30300e-05, -1.80500e-06],
                           [-7.82300e-02, -5.31900e-02, -9.32700e-03, -9.99000e-05,  5.20100e-04,  2.38800e-04, -8.08700e-06, -1.55500e-05],
                           [-2.17000e-02, -3.00600e-02, -1.07600e-02, -1.03400e-03,  1.48700e-05,  1.47500e-04,  2.85800e-05, -1.18900e-05],
                           [ 5.61400e-03, -8.98800e-03, -8.89500e-03, -1.52000e-03, -2.60400e-04,  2.72000e-05,  3.42000e-05, -1.58800e-06]])
#  gRO2(+M) <=> gQOOH[O](+M)                           1.000e+00 0.000     0.000
#      TCHEB/ 180.000   1500.000 /
#      PCHEB/ 0.010     98.692   /
#      CHEB/ 10 8/
#      CHEB/ -5.708e+00   1.159e+00    -1.429e-01   -4.008e-03   2.720e-03   /
#      CHEB/ 7.574e-04    8.525e-05    2.355e-06    4.149e+00    8.745e-01   /
#      CHEB/ 4.550e-02    -2.564e-02   -3.214e-03   2.373e-03    7.191e-04   /
#      CHEB/ -1.425e-04   -2.971e+00   -1.597e-01   2.148e-02    2.257e-02   /
#      CHEB/ 9.810e-04    -1.097e-03   -2.680e-05   6.334e-05    -1.569e+00  /
#      CHEB/ -2.499e-01   -6.233e-02   5.768e-03    8.882e-03    1.409e-03   /
#      CHEB/ -7.846e-04   -3.142e-04   -7.291e-01   -7.716e-02   -3.857e-02  /
#      CHEB/ -9.916e-03   1.769e-03    1.681e-03    1.513e-04    -1.978e-04  /
#      CHEB/ -3.465e-01   -4.681e-03   6.632e-03    8.710e-04    -1.581e-03  /
#      CHEB/ -1.130e-03   -9.263e-05   1.720e-04    -1.802e-01   -2.180e-02  /
#      CHEB/ 1.134e-02    9.323e-03    1.907e-03    -1.215e-03   -7.295e-04  /
#      CHEB/ -7.152e-07   -1.003e-01   -3.751e-02   -7.106e-03   3.330e-03   /
#      CHEB/ 3.037e-03    6.189e-04    -2.945e-04   -1.722e-04   -4.077e-02  /
#      CHEB/ -2.622e-02   -1.709e-02   -4.681e-03   2.111e-04    8.120e-04   /
#      CHEB/ 3.760e-04    2.862e-05    -1.650e-03   -7.127e-03   -1.072e-02  /
#      CHEB/ -5.675e-03   -2.063e-03   -2.115e-04   2.458e-04    1.751e-04   /

# Reaction 6
chebyshev_reaction('gQOOHa (+ M) <=> gQOOH[O] (+ M)',
                   Tmin=180.0, Tmax=1500.0,
                   Pmin=(0.01, 'atm'), Pmax=(98.692, 'atm'),
                   coeffs=[[-7.66400e+00,  1.22400e+00, -3.79800e-01, -3.33900e-02,  7.01100e-03,  5.48300e-03, -1.29000e-03, -4.10400e-05],
                           [ 2.49200e-01,  1.85500e+00,  3.01600e-01, -6.71300e-02, -1.97900e-02,  1.63200e-03,  3.29200e-03,  5.08400e-05],
                           [-3.72900e+00, -4.63300e-01,  1.14800e-01,  7.39800e-02,  4.69400e-03, -6.03900e-03, -1.10000e-03,  2.12000e-04],
                           [-1.93200e+00, -5.69900e-01, -1.19300e-01,  1.85800e-02,  2.30100e-02,  3.97200e-03, -1.91800e-03, -1.02500e-03],
                           [-8.15200e-01, -1.78100e-01, -1.00300e-01, -2.23700e-02,  2.57500e-03,  4.73600e-03,  1.03400e-03, -3.30100e-04],
                           [-3.10800e-01,  1.04200e-02,  7.15900e-04, -1.32700e-02, -6.83500e-03, -1.54200e-03,  6.52800e-04,  5.37500e-04],
                           [-1.35600e-01,  2.69800e-02,  2.81900e-02,  1.02300e-02, -2.42000e-03, -2.98700e-03, -8.78000e-04,  2.23900e-04],
                           [-7.34600e-02, -1.85200e-02,  1.06900e-02,  1.09700e-02,  3.59600e-03, -4.56300e-04, -8.62900e-04, -2.37800e-04],
                           [-3.79500e-02, -3.66500e-02, -1.32500e-02,  9.76500e-04,  3.74000e-03,  1.15600e-03, -1.24000e-05, -1.70500e-04],
                           [-7.43100e-03, -2.43600e-02, -2.01700e-02, -4.36900e-03,  5.52900e-06,  1.06900e-03,  3.69700e-04,  1.59500e-05]])

# Reaction 7
chebyshev_reaction('gQOOHg (+ M) <=> gQOOH[O] (+ M)',
                   Tmin=180.0, Tmax=1500.0,
                   Pmin=(0.01, 'atm'), Pmax=(98.692, 'atm'),
                   coeffs=[[-4.53500e+00,  5.26900e-01, -2.93000e-01, -2.51700e-02,  9.10600e-03,  2.88300e-03,  1.87300e-04, -2.45100e-04],
                           [-3.16100e-01,  1.54300e+00,  1.79800e-01, -1.69900e-02, -1.74900e-02,  1.30200e-03,  2.30300e-03,  2.53800e-04],
                           [-3.53800e+00, -2.51100e-01,  9.42400e-02,  5.39800e-02,  8.31200e-03, -3.20000e-03, -2.00800e-03, -5.14800e-05],
                           [-2.04000e+00, -4.36500e-01, -5.48300e-02,  1.72600e-02,  1.51300e-02,  3.59800e-03, -1.33000e-03, -1.01200e-03],
                           [-9.49100e-01, -2.35600e-01, -5.29700e-02, -4.61400e-03,  9.85800e-04,  2.25600e-03,  9.83700e-04, -1.70800e-04],
                           [-3.99700e-01, -8.27300e-02, -1.82700e-02, -7.14500e-04, -1.84800e-03, -1.47700e-03,  2.27200e-04,  4.21800e-04],
                           [-1.62200e-01, -2.82800e-02, -7.74000e-03,  1.17200e-03,  1.45300e-03, -6.04300e-04, -6.03100e-04,  2.19800e-05],
                           [-6.67000e-02, -1.59300e-02, -6.99900e-03, -4.99800e-03,  3.72400e-04,  1.26200e-03,  1.45000e-04, -1.80100e-04],
                           [-2.34000e-02, -4.85400e-03, -7.06400e-03, -4.87300e-03, -3.27000e-03,  1.95100e-04,  7.71900e-04,  1.83600e-04],
                           [ 4.83300e-03, -4.82100e-03,  8.41600e-04, -1.61900e-04, -3.01700e-03, -1.62200e-03,  1.34000e-04,  3.66700e-04]])

# Reaction 8
chebyshev_reaction('gQOOHb (+ M) <=> gQOOH[O] (+ M)',
                   Tmin=180.0, Tmax=1500.0,
                   Pmin=(0.01, 'atm'), Pmax=(98.692, 'atm'),
                   coeffs=[[-1.48400e+01,  2.82100e+00,  1.52800e-02,  3.44600e-02,  8.68700e-03, -9.84700e-03, -3.85300e-03,  9.85800e-04],
                           [ 1.10200e+00,  2.30000e-01,  1.85400e-01,  6.45500e-03, -6.12400e-03,  1.47400e-02,  3.75100e-03, -2.46300e-03],
                           [-2.40800e+00, -5.98100e-01, -2.64900e-01, -2.25600e-02,  4.80500e-03,  2.89900e-03,  1.65000e-03,  7.38200e-04],
                           [-1.41200e+00, -3.76200e-01, -1.50900e-01, -1.59800e-02,  4.08800e-03,  3.54900e-04, -1.31200e-04,  3.37900e-04],
                           [-8.03100e-01,  6.28800e-02, -2.78700e-02, -1.92100e-02,  2.82700e-03,  2.39500e-03, -8.72800e-04, -4.67200e-04],
                           [-4.16300e-01,  1.01900e-01,  5.09500e-02,  7.63000e-03, -6.25800e-03, -2.72200e-03,  7.15600e-04,  1.42300e-04],
                           [-2.66700e-01,  8.83400e-02,  3.00600e-02,  5.08500e-03,  1.26000e-03, -1.22500e-03, -1.06300e-03,  5.29300e-05],
                           [-1.20700e-01, -3.11500e-02,  5.18200e-03,  2.36000e-03,  1.68400e-03,  3.65300e-04, -1.34400e-06, -5.86600e-05],
                           [-3.73900e-02, -5.50500e-02, -1.42600e-02, -1.47100e-03, -4.46500e-04,  6.27300e-04,  5.27100e-04,  3.40400e-05],
                           [-9.56400e-03, -1.80400e-02, -1.21400e-02, -5.20600e-03, -6.97700e-04, -1.25700e-05, -1.70400e-04,  8.95100e-05]])

# Reaction 9
chebyshev_reaction('O2 + gR (+ M) <=> gQOOH[O] (+ M)',
                   Tmin=180.0, Tmax=1500.0,
                   Pmin=(0.01, 'atm'), Pmax=(98.692, 'atm'),
                   coeffs=[[ 4.85700e+00,  1.45000e+00, -1.97700e-01, -1.21100e-01, -4.31400e-02,  1.20100e-02,  1.38500e-02,  2.09500e-03],
                           [-3.93500e+00,  3.35100e-01,  9.92100e-02,  1.17300e-01,  2.45100e-02, -1.56700e-02, -1.42100e-02, -7.19400e-04],
                           [-2.34800e+00, -2.79800e-02, -8.32700e-02,  1.82700e-02,  2.62100e-02,  6.84100e-03, -2.07100e-03, -2.74400e-03],
                           [-1.20200e+00, -5.03000e-03, -6.58000e-02, -3.29200e-02,  3.78500e-03,  6.66300e-03,  2.49000e-03, -3.94700e-04],
                           [-5.49600e-01,  8.01700e-02,  1.97800e-02, -1.93100e-02, -1.00200e-02, -1.28200e-03,  1.55400e-03,  9.96200e-04],
                           [-2.60300e-01,  5.21600e-02,  5.70200e-02,  9.49700e-03, -4.74300e-03, -4.20800e-03, -7.43300e-04,  5.21200e-04],
                           [-1.41400e-01, -2.46700e-02,  3.04900e-02,  1.84600e-02,  4.36300e-03, -1.23700e-03, -1.33500e-03, -3.56600e-04],
                           [-8.36700e-02, -6.52100e-02, -4.58000e-03,  7.16600e-03,  5.35000e-03,  1.41700e-03, -2.77500e-04, -3.20300e-04],
                           [-3.69300e-02, -4.99800e-02, -2.54900e-02, -3.74800e-03,  1.09300e-03,  1.56800e-03,  5.60200e-04, -2.55200e-05],
                           [ 2.41700e-03, -2.43200e-02, -1.63900e-02, -6.84400e-03, -2.13000e-03, -1.38500e-04,  3.77600e-04,  2.40200e-04]])
#  gRO2(+M) <=> gQOOHa(+M)                             1.000e+00 0.000     0.000
#      TCHEB/ 180.000   1500.000 /
#      PCHEB/ 0.010     98.692   /
#      CHEB/ 10 8/
#      CHEB/ -3.392e+00   1.256e+00    -1.320e-01   1.783e-02    -8.833e-03  /
#      CHEB/ 3.172e-03    -1.510e-04   -1.833e-04   3.434e+00    1.274e+00   /
#      CHEB/ 1.135e-01    -5.578e-02   5.416e-03    1.417e-03    -1.413e-04  /
#      CHEB/ -1.196e-04   -2.617e+00   1.360e-01    1.250e-01    1.303e-02   /
#      CHEB/ -3.474e-03   -1.690e-03   3.385e-04    1.893e-04    -1.470e+00  /
#      CHEB/ -3.122e-01   5.962e-03    3.394e-02    5.936e-03    -2.978e-03  /
#      CHEB/ -4.499e-04   2.788e-04    -8.226e-01   -2.428e-01   -6.655e-02  /
#      CHEB/ 1.193e-02    6.464e-03    9.695e-04    -3.764e-04   -2.109e-04  /
#      CHEB/ -3.369e-01   -1.164e-01   -3.317e-02   -1.282e-02   4.214e-04   /
#      CHEB/ 1.978e-03    5.634e-04    -1.958e-04   -1.809e-01   -1.899e-02  /
#      CHEB/ -1.010e-02   -5.156e-03   -4.062e-03   -1.334e-04   5.477e-04   /
#      CHEB/ 1.518e-04    -6.543e-02   -1.076e-02   3.383e-03    2.391e-03   /
#      CHEB/ -7.291e-04   -1.304e-03   -3.110e-04   1.611e-04    -2.335e-02  /
#      CHEB/ -1.726e-02   -2.708e-03   3.296e-03    2.627e-03    -2.768e-04  /
#      CHEB/ -5.632e-04   -1.055e-04   -1.996e-02   -5.490e-03   -1.458e-02  /
#      CHEB/ 3.668e-04    2.021e-03    9.163e-04    -6.264e-05   -1.779e-04  /
#  gQOOH[O](+M) <=> gQOOHa(+M)                         1.000e+00 0.000     0.000
#      TCHEB/ 180.000   1500.000 /
#      PCHEB/ 0.010     98.692   /
#      CHEB/ 10 8/
#      CHEB/ -1.336e+00   1.224e+00    -3.798e-01   -3.339e-02   7.011e-03   /
#      CHEB/ 5.483e-03    -1.290e-03   -4.104e-05   -4.100e+00   1.855e+00   /
#      CHEB/ 3.016e-01    -6.713e-02   -1.979e-02   1.632e-03    3.292e-03   /
#      CHEB/ 5.084e-05    -3.740e+00   -4.633e-01   1.148e-01    7.398e-02   /
#      CHEB/ 4.694e-03    -6.039e-03   -1.100e-03   2.120e-04    -1.983e+00  /
#      CHEB/ -5.699e-01   -1.193e-01   1.858e-02    2.301e-02    3.972e-03   /
#      CHEB/ -1.918e-03   -1.025e-03   -8.403e-01   -1.781e-01   -1.003e-01  /
#      CHEB/ -2.237e-02   2.575e-03    4.736e-03    1.034e-03    -3.301e-04  /
#      CHEB/ -3.201e-01   1.042e-02    7.159e-04    -1.327e-02   -6.835e-03  /
#      CHEB/ -1.542e-03   6.528e-04    5.375e-04    -1.389e-01   2.698e-02   /
#      CHEB/ 2.819e-02    1.023e-02    -2.420e-03   -2.987e-03   -8.780e-04  /
#      CHEB/ 2.239e-04    -7.475e-02   -1.852e-02   1.069e-02    1.097e-02   /
#      CHEB/ 3.596e-03    -4.563e-04   -8.629e-04   -2.378e-04   -3.841e-02  /
#      CHEB/ -3.665e-02   -1.325e-02   9.765e-04    3.740e-03    1.156e-03   /