units(length='cm', time='s', quantity='mol', act_energy='kcal/mol')

ideal_gas(name='gas',
          elements="H D T C Ci O Oi N Ne Ar He Si S F Cl Br I X",
          species="""aOOHbalkene      OH               ibutanal
                     aR               performic_acid   disub_c4ether
                     aQOOHb           H                aadduct
                     trisub_epoxy     ibutenol         aQOOH[O]
                     ipropyl          aRO2             O2
                     formic_acid      propene          aQOOHg
                     ibut_peroxyacid  HO2              CH3""",
          reactions='all',
          initial_state=state(temperature=300.0, pressure=OneAtm))

#-------------------------------------------------------------------------------
# Element data
#-------------------------------------------------------------------------------

element(symbol='Ci', atomic_mass=13.003)
element(symbol='D', atomic_mass=2.014)
element(symbol='Oi', atomic_mass=18.0)
element(symbol='T', atomic_mass=3.016)
element(symbol='X', atomic_mass=195.083)
#-------------------------------------------------------------------------------
# Species data
#-------------------------------------------------------------------------------

species(name='aOOHbalkene',
        atoms='C:3 H:6 O:3',
        thermo=(NASA([10.00, 497.41],
                     [ 3.76691735E+00,  1.51417956E-02,  1.85499431E-04,
                      -4.61303214E-07,  3.27678941E-10, -2.99981220E+04,
                       1.09903968E+01]),
                NASA([497.41, 3000.00],
                     [ 6.20882781E+00,  4.08866173E-02, -2.89934946E-05,
                       9.60428979E-09, -1.19355432E-12, -3.08024513E+04,
                      -4.72842811E+00])))

species(name='OH',
        atoms='H:1 O:1',
        thermo=(NASA([10.00, 984.14],
                     [ 3.49686242E+00,  1.83973160E-04, -9.97634499E-07,
                       1.56942783E-09, -6.10128175E-13,  3.41673934E+03,
                       1.48093120E+00]),
                NASA([984.14, 3000.00],
                     [ 3.45221464E+00, -2.95124034E-04,  7.39418622E-07,
                      -2.89309866E-10,  3.53041498E-14,  3.45751599E+03,
                       1.85813897E+00])))

species(name='ibutanal',
        atoms='C:4 H:8 O:1',
        thermo=(NASA([10.00, 683.88],
                     [ 3.57157346E+00,  3.36936906E-02, -1.78475021E-05,
                       1.31946716E-08, -7.58008388E-12, -2.63373855E+04,
                       1.05595084E+01]),
                NASA([683.88, 3000.00],
                     [ 1.29043622E+00,  4.14804229E-02, -2.27411206E-05,
                       6.08619500E-09, -6.38995128E-13, -2.58954663E+04,
                       2.16477430E+01])))

species(name='aR',
        atoms='C:4 H:9 O:1',
        thermo=(NASA([10.00, 455.22],
                     [ 3.59625500E+00,  3.38947981E-02,  7.37257079E-06,
                      -3.99275335E-08,  2.49019944E-11, -1.34134577E+04,
                       1.18269265E+01]),
                NASA([455.22, 3000.00],
                     [ 2.49586309E+00,  4.35639890E-02, -2.44887770E-05,
                       6.73363769E-09, -7.23862433E-13, -1.33132746E+04,
                       1.62696907E+01])))

species(name='performic_acid',
        atoms='C:1 H:2 O:3',
        thermo=(NASA([10.00, 590.95],
                     [ 3.92633851E+00,  4.24517168E-03,  6.71106764E-05,
                      -1.36545385E-07,  8.03337864E-11, -3.63028176E+04,
                       8.06485813E+00]),
                NASA([590.95, 3000.00],
                     [ 4.39992934E+00,  1.85411415E-02, -1.36005501E-05,
                       4.62292431E-09, -5.88463603E-13, -3.66643888E+04,
                       3.44353230E+00])))

species(name='disub_c4ether',
        atoms='C:4 H:8 O:2',
        thermo=(NASA([10.00, 413.50],
                     [ 3.78241323E+00,  1.89501763E-02,  8.65302396E-05,
                      -1.80580575E-07,  1.13656264E-10, -3.92897550E+04,
                       1.09982450E+01]),
                NASA([413.50, 3000.00],
                     [ 4.29420885E-01,  5.13851903E-02, -3.11292293E-05,
                       9.11498284E-09, -1.03192718E-12, -3.90124607E+04,
                       2.42134976E+01])))

species(name='aQOOHb',
        atoms='C:4 H:9 O:3',
        thermo=(NASA([10.00, 412.78],
                     [ 3.15498836E+00,  8.55068303E-02, -2.35307993E-04,
                       4.71983261E-07, -3.62709267E-10, -2.65596800E+04,
                       1.52522123E+01]),
                NASA([412.78, 3000.00],
                     [ 4.18099845E+00,  5.26168288E-02, -3.23998410E-05,
                       9.59389339E-09, -1.09464519E-12, -2.64488850E+04,
                       1.35782328E+01])))

species(name='H',
        atoms='H:1',
        thermo=(NASA([10.00, 794.01],
                     [ 2.50000000E+00,  1.99051163E-15, -1.19089508E-17,
                       2.10805655E-20, -1.11017699E-23,  2.54725594E+04,
                      -4.61279342E-01]),
                NASA([794.01, 3000.00],
                     [ 2.50000000E+00,  1.52667235E-14, -1.58445285E-17,
                       6.63088600E-21, -9.62111674E-25,  2.54725594E+04,
                      -4.61279342E-01])))

species(name='aadduct',
        atoms='C:4 H:9 O:3',
        thermo=(NASA([10.00, 449.84],
                     [ 3.06901904E+00,  9.20724491E-02, -2.68085092E-04,
                       5.15249897E-07, -3.68046586E-10, -3.19301847E+04,
                       1.46591735E+01]),
                NASA([449.84, 3000.00],
                     [ 4.11210745E+00,  5.16955724E-02, -2.97401041E-05,
                       8.32758939E-09, -9.08861448E-13, -3.17093437E+04,
                       1.39578825E+01])))

species(name='trisub_epoxy',
        atoms='C:4 H:8 O:2',
        thermo=(NASA([10.00, 209.19],
                     [ 3.75295042E+00,  2.37546930E-02,  1.26610110E-04,
                      -4.78364365E-07,  5.79468168E-10, -3.98979706E+04,
                       1.12739684E+01]),
                NASA([209.19, 3000.00],
                     [ 2.64185254E+00,  4.50006531E-02, -2.57361066E-05,
                       7.15266054E-09, -7.72980731E-13, -3.98514850E+04,
                       1.48960343E+01])))

species(name='ibutenol',
        atoms='C:4 H:8 O:1',
        thermo=(NASA([10.00, 135.97],
                     [ 3.95714996E+00,  5.72646980E-03,  4.63611760E-04,
                      -3.04137514E-06,  6.85019471E-09, -2.17750862E+04,
                       8.21931848E+00]),
                NASA([135.97, 3000.00],
                     [ 3.32467612E+00,  3.69033556E-02, -1.89960416E-05,
                       4.73417677E-09, -4.59705291E-13, -2.17695075E+04,
                       9.58133237E+00])))

species(name='aQOOH[O]',
        atoms='C:4 H:9 O:3',
        thermo=(NASA([10.00, 488.36],
                     [ 3.54559533E+00,  3.89536133E-02,  8.47689703E-05,
                      -2.45147486E-07,  1.76157259E-10, -2.26957665E+04,
                       1.34685910E+01]),
                NASA([488.36, 3000.00],
                     [ 3.94214913E+00,  5.71928314E-02, -3.72516212E-05,
                       1.15209013E-08, -1.35808341E-12, -2.29907274E+04,
                       9.21628964E+00])))

species(name='ipropyl',
        atoms='C:3 H:7',
        thermo=(NASA([10.00, 421.76],
                     [ 3.73943775E+00,  3.10070157E-02, -1.51196908E-04,
                       4.35367329E-07, -3.85565052E-10,  9.49213457E+03,
                       7.79448918E+00]),
                NASA([421.76, 3000.00],
                     [-4.74526725E-01,  3.20862468E-02, -1.67340747E-05,
                       4.21365136E-09, -4.13155573E-13,  1.01934458E+04,
                       2.85865912E+01])))

species(name='aRO2',
        atoms='C:4 H:9 O:3',
        thermo=(NASA([10.00, 670.36],
                     [ 3.45405325E+00,  4.74751311E-02,  9.77507759E-06,
                      -6.31019603E-08,  3.75500067E-11, -3.34403324E+04,
                       1.39284976E+01]),
                NASA([670.36, 3000.00],
                     [ 5.04137652E+00,  5.19952978E-02, -3.16472789E-05,
                       9.22798587E-09, -1.03598915E-12, -3.39675249E+04,
                       4.56056770E+00])))

species(name='O2',
        atoms='O:2',
        thermo=(NASA([10.00, 605.96],
                     [ 3.50743498E+00, -4.43860349E-04,  1.45938058E-06,
                       1.61509333E-09, -2.32050052E-12, -9.24756224E+02,
                       4.72183634E+00]),
                NASA([605.96, 3000.00],
                     [ 2.87462882E+00,  2.17840991E-03, -1.18262921E-06,
                       2.86910493E-10, -2.53297146E-14, -8.19517838E+02,
                       7.69331810E+00])))

species(name='formic_acid',
        atoms='C:1 H:2 O:2',
        thermo=(NASA([10.00, 741.38],
                     [ 4.06855785E+00, -4.74562133E-03,  4.71797900E-05,
                      -6.07490052E-08,  2.51286794E-11, -4.66880837E+04,
                       6.53681035E+00]),
                NASA([741.38, 3000.00],
                     [ 1.13645847E+00,  1.74953124E-02, -1.08112403E-05,
                       3.08075326E-09, -3.34892658E-13, -4.64297918E+04,
                       1.86149484E+01])))

species(name='propene',
        atoms='C:3 H:6',
        thermo=(NASA([10.00, 519.53],
                     [ 3.98723879E+00,  4.72040503E-04,  6.51776229E-05,
                      -9.89891002E-08,  4.91141123E-11,  7.11137696E+02,
                       6.98071210E+00]),
                NASA([519.53, 3000.00],
                     [ 3.79893331E-01,  2.82457690E-02, -1.50108430E-05,
                       3.90894069E-09, -4.00521928E-13,  1.08596504E+03,
                       2.20218922E+01])))

species(name='aQOOHg',
        atoms='C:4 H:9 O:3',
        thermo=(NASA([10.00, 455.48],
                     [ 3.62522127E+00,  2.83222320E-02,  2.08527447E-04,
                      -5.67427418E-07,  4.35169138E-10, -2.69707709E+04,
                       1.26617758E+01]),
                NASA([455.48, 3000.00],
                     [ 5.13914202E+00,  5.96270859E-02, -4.14435328E-05,
                       1.34202375E-08, -1.63474553E-12, -2.75713273E+04,
                       1.46991116E+00])))

species(name='ibut_peroxyacid',
        atoms='C:4 H:8 O:3',
        thermo=(NASA([10.00, 1386.21],
                     [ 3.50995385E+00,  4.78670384E-02, -2.40781384E-05,
                       3.71046938E-09,  3.85442115E-13, -4.90551286E+04,
                       1.22017268E+01]),
                NASA([1386.21, 3000.00],
                     [ 1.24543146E+01,  3.02396862E-02, -1.38577031E-05,
                       3.05328904E-09, -2.63982457E-13, -5.23210119E+04,
                      -3.67061828E+01])))

species(name='HO2',
        atoms='H:1 O:2',
        thermo=(NASA([10.00, 891.11],
                     [ 4.02887004E+00, -1.75769289E-03,  1.08726004E-05,
                      -1.13812972E-08,  3.90113097E-12,  4.95165001E+02,
                       4.69302008E+00]),
                NASA([891.11, 3000.00],
                     [ 3.06571044E+00,  4.28505005E-03, -2.19325920E-06,
                       5.58882699E-10, -5.61246669E-14,  5.98557610E+02,
                       8.84564156E+00])))

species(name='CH3',
        atoms='C:1 H:3',
        thermo=(NASA([10.00, 616.77],
                     [ 3.98929952E+00,  5.45150461E-04,  9.01320092E-06,
                      -1.08320497E-08,  4.38985879E-12,  1.65859883E+04,
                       2.22446886E-01]),
                NASA([616.77, 3000.00],
                     [ 3.35928237E+00,  4.63117126E-03, -9.24365433E-07,
                      -9.02514624E-11,  3.56905106E-14,  1.66637014E+04,
                       2.95743732E+00])))

#-------------------------------------------------------------------------------
# Reaction data
#-------------------------------------------------------------------------------

# Reaction 1
chebyshev_reaction('aQOOH[O] (+ M) <=> aQOOHb (+ M)',
                   Tmin=180.0, Tmax=1500.0,
                   Pmin=(0.01, 'atm'), Pmax=(98.692, 'atm'),
                   coeffs=[[-6.05000e+00,  2.58000e+00, -2.43400e-02, -6.83100e-02, -5.96600e-03,  1.53400e-02, -1.57900e-03, -3.09000e-03],
                           [-6.05500e+00,  9.19300e-01,  2.31400e-01,  1.11900e-01, -3.11600e-02, -2.47800e-02,  4.58300e-03,  4.54000e-03],
                           [-3.27300e+00,  1.67700e-01, -8.25800e-02,  1.74600e-02,  1.46300e-02, -3.39700e-03, -2.58800e-03,  2.62800e-04],
                           [-1.59700e+00,  2.12200e-02, -8.54500e-02, -3.33600e-02,  5.28900e-03,  4.78300e-03,  1.36800e-04, -5.59000e-04],
                           [-7.61200e-01, -2.70600e-02, -1.77400e-02, -1.83600e-02, -5.10600e-03,  1.51500e-03,  1.29600e-03, -1.94400e-04],
                           [-2.83100e-01, -6.69400e-02, -1.76000e-03,  5.12900e-03, -4.10800e-04, -8.55700e-04, -3.94400e-04,  7.30500e-05],
                           [-9.46400e-02, -7.04700e-02, -7.98400e-03,  7.64300e-03,  1.42600e-03,  2.28600e-04,  3.31200e-04, -2.31100e-04],
                           [-5.35100e-02, -3.65000e-02, -1.79100e-02,  4.06900e-04,  2.61400e-03,  2.04600e-05, -3.97200e-04,  1.14100e-04],
                           [-7.09500e-02, -1.53700e-02, -3.24100e-03, -1.03800e-04, -3.49500e-04, -8.03700e-04, -8.57200e-05,  1.80200e-04],
                           [ 1.85600e-02,  1.35500e-02, -1.56300e-03, -3.00800e-03,  3.40500e-04,  2.40200e-04, -4.37700e-04, -2.06900e-04]])

# Reaction 2
chebyshev_reaction('aQOOHg (+ M) <=> aQOOHb (+ M)',
                   Tmin=180.0, Tmax=1500.0,
                   Pmin=(0.01, 'atm'), Pmax=(98.692, 'atm'),
                   coeffs=[[-9.21700e+00,  1.73100e+00,  9.60100e-02, -6.07400e-02, -4.52700e-02,  1.63200e-03,  3.57600e-03,  1.99500e-04],
                           [ 1.27300e+00,  1.56800e+00,  1.85900e-01,  1.27600e-01,  8.36400e-03, -2.14300e-02, -3.62500e-03,  2.07900e-03],
                           [-2.87000e+00, -6.31100e-02, -1.27800e-01, -3.25300e-02,  3.48300e-02,  1.91700e-02, -1.59200e-03, -3.83500e-03],
                           [-1.69200e+00, -2.96200e-01, -3.69700e-02, -4.75800e-02, -1.59600e-02,  6.32400e-03,  5.66200e-03,  6.95600e-04],
                           [-8.12200e-01, -2.28900e-01,  8.11000e-03,  9.19900e-03, -1.57300e-02, -6.74500e-03,  1.38000e-03,  1.50700e-03],
                           [-3.16500e-01, -1.87300e-01, -1.71100e-02,  3.00700e-02,  5.88800e-03, -5.91400e-03, -3.14500e-03,  3.18000e-04],
                           [-1.02500e-01, -9.75600e-02, -3.61800e-02,  1.00600e-02,  9.69400e-03,  8.71900e-04, -1.89700e-03, -7.87800e-04],
                           [-9.48100e-03, -2.02000e-02, -2.95300e-02, -6.73100e-03,  3.57100e-03,  2.56400e-03,  8.98100e-05, -5.16100e-04],
                           [ 2.44000e-02,  1.74500e-02, -6.15700e-03, -7.85000e-03, -2.56500e-03,  1.06100e-03,  8.04900e-04, -3.76400e-06],
                           [ 2.10800e-02,  3.21000e-02,  9.54900e-03, -2.91700e-03, -2.75600e-03, -5.85300e-04,  4.29900e-04,  2.53000e-04]])

# Reaction 3
chebyshev_reaction('aRO2 (+ M) <=> aQOOHb (+ M)',
                   Tmin=180.0, Tmax=1500.0,
                   Pmin=(0.01, 'atm'), Pmax=(98.692, 'atm'),
                   coeffs=[[-8.76300e+00,  1.34900e+00,  1.06000e-01,  2.59900e-03, -9.16400e-03, -3.46900e-03, -3.56100e-04,  3.53600e-04],
                           [ 4.20900e+00,  1.33400e+00,  2.48000e-01,  1.93800e-02, -1.32300e-02, -6.54900e-03, -3.56300e-04,  6.63800e-04],
                           [-2.68500e+00,  1.36600e-01,  1.22900e-02,  1.69300e-02,  3.91700e-03, -1.17900e-03, -2.17300e-04,  2.14500e-04],
                           [-1.44900e+00, -1.62700e-01, -9.08900e-02, -1.64100e-02,  3.10400e-03,  2.44200e-03,  9.60100e-04,  9.35800e-05],
                           [-7.08700e-01, -1.15400e-01, -5.47000e-02, -1.27800e-02, -9.13700e-04,  3.54300e-04,  4.45400e-04,  9.37200e-05],
                           [-3.24300e-01, -6.90400e-02, -2.32300e-02,  4.25100e-03,  2.75400e-03, -2.00000e-04, -5.80500e-04, -2.85400e-04],
                           [-1.45300e-01, -4.78200e-02, -2.09600e-02,  5.01600e-03,  4.60100e-03,  9.98000e-04, -3.54500e-04, -3.62900e-04],
                           [-4.44300e-02, -2.58900e-02, -1.75000e-02, -2.20400e-03,  1.97500e-03,  8.96800e-04,  1.02600e-04, -9.59600e-05],
                           [-2.08300e-02,  9.40600e-03, -1.16700e-02, -3.65500e-03, -7.36900e-04,  1.06700e-04,  8.19200e-05,  3.03100e-05],
                           [ 1.24100e-02,  1.72400e-02,  1.77500e-03, -2.97200e-03, -1.15100e-03, -1.74600e-04,  3.45100e-05,  9.16900e-06]])

# Reaction 4
chebyshev_reaction('aadduct (+ M) <=> aQOOHb (+ M)',
                   Tmin=180.0, Tmax=1500.0,
                   Pmin=(0.01, 'atm'), Pmax=(98.692, 'atm'),
                   coeffs=[[-1.32800e+01,  2.75400e-01,  1.78100e-01,  5.82400e-03, -1.01700e-02, -4.24100e-03,  1.98300e-04,  8.57800e-05],
                           [ 2.39400e+00,  1.48800e+00,  2.80600e-01,  2.32700e-02, -1.24400e-02, -7.07300e-03, -7.72000e-06,  5.69900e-04],
                           [-2.68300e+00,  1.70300e-01,  5.96500e-03,  1.19400e-02,  2.89700e-03, -9.57500e-04, -1.88000e-04,  2.38600e-04],
                           [-1.43300e+00, -1.39000e-01, -8.34600e-02, -1.52200e-02,  1.72900e-03,  2.96900e-03,  7.50900e-04,  8.26500e-06],
                           [-7.01500e-01, -1.05500e-01, -5.00300e-02, -1.20100e-02, -1.53300e-03,  7.54000e-04,  3.36200e-04,  6.16800e-05],
                           [-3.21700e-01, -6.52000e-02, -2.25500e-02,  3.63600e-03,  2.79200e-03, -2.38100e-04, -5.14100e-04, -3.13600e-04],
                           [-1.41300e-01, -4.08400e-02, -2.12200e-02,  4.54800e-03,  4.80300e-03,  7.98100e-04, -2.87900e-04, -3.31600e-04],
                           [-3.54900e-02, -3.32300e-02, -1.56400e-02, -2.46500e-03,  1.92500e-03,  1.18300e-03, -1.90000e-04,  4.41700e-05],
                           [-1.64200e-02,  1.54100e-02, -1.21400e-02, -3.74900e-03, -7.18600e-04, -4.24200e-05,  3.12200e-04, -1.15700e-04],
                           [ 1.30500e-02,  1.58000e-02,  1.17900e-03, -3.10700e-03, -9.65200e-04, -9.12900e-05, -1.67200e-04,  1.60500e-04]])

# Reaction 5
chebyshev_reaction('O2 + aR (+ M) <=> aQOOHb (+ M)',
                   Tmin=180.0, Tmax=1500.0,
                   Pmin=(0.01, 'atm'), Pmax=(98.692, 'atm'),
                   coeffs=[[ 1.98000e+00,  5.91800e+00, -9.25900e-01,  4.07500e-01, -3.31800e-02, -8.45800e-02, -1.63300e-03,  2.27500e-04],
                           [-3.70800e+00, -8.60000e-01,  7.69000e-01, -4.41300e-01,  1.32500e-01,  6.71000e-02, -9.31900e-03,  3.67600e-03],
                           [-1.92500e+00, -4.05900e-01,  9.84900e-02, -8.13300e-02, -3.58200e-02,  2.19300e-02,  3.23800e-03, -9.38100e-04],
                           [-9.37900e-01, -2.26400e-01,  5.92200e-02, -1.50100e-02, -3.43500e-02, -1.02200e-03,  2.10600e-03, -8.18500e-04],
                           [-4.38200e-01, -9.93600e-02,  5.38100e-02,  2.25600e-02, -1.07300e-02, -5.71300e-03, -8.01900e-05, -4.39300e-04],
                           [-1.83800e-01, -9.56100e-02,  2.99600e-02,  3.01000e-02,  4.07800e-03, -2.49300e-03, -9.28300e-04, -3.16400e-04],
                           [-7.23500e-02, -8.31100e-02, -6.28400e-03,  1.66700e-02,  8.00600e-03,  6.05500e-04, -4.39900e-04, -2.36900e-04],
                           [-1.93500e-02, -5.47400e-02, -2.00000e-02,  8.99200e-04,  4.41300e-03,  1.51200e-03,  1.11900e-04, -7.14700e-05],
                           [ 8.19400e-03, -2.44600e-02, -1.53700e-02, -5.01700e-03,  1.47100e-04,  8.43600e-04,  2.82700e-04,  3.28500e-05],
                           [ 1.22600e-02,  4.56700e-03, -5.06300e-03, -5.89100e-03, -1.56800e-03,  2.09600e-04,  2.31600e-04,  7.14000e-05]])
#  aQOOHb(+M) <=> aQOOH[O](+M)                         1.000e+00 0.000     0.000
#      TCHEB/ 180.000   1500.000 /
#      PCHEB/ 0.010     98.692   /
#      CHEB/ 10 8/
#      CHEB/ -1.276e+01   2.580e+00    -2.434e-02   -6.831e-02   -5.966e-03  /
#      CHEB/ 1.534e-02    -1.579e-03   -3.090e-03   -2.132e+00   9.193e-01   /
#      CHEB/ 2.314e-01    1.119e-01    -3.116e-02   -2.478e-02   4.583e-03   /
#      CHEB/ 4.540e-03    -3.195e+00   1.677e-01    -8.258e-02   1.746e-02   /
#      CHEB/ 1.463e-02    -3.397e-03   -2.588e-03   2.628e-04    -1.551e+00  /
#      CHEB/ 2.122e-02    -8.545e-02   -3.336e-02   5.289e-03    4.783e-03   /
#      CHEB/ 1.368e-04    -5.590e-04   -7.458e-01   -2.706e-02   -1.774e-02  /
#      CHEB/ -1.836e-02   -5.106e-03   1.515e-03    1.296e-03    -1.944e-04  /
#      CHEB/ -2.783e-01   -6.694e-02   -1.760e-03   5.129e-03    -4.108e-04  /
#      CHEB/ -8.557e-04   -3.944e-04   7.305e-05    -9.283e-02   -7.047e-02  /
#      CHEB/ -7.984e-03   7.643e-03    1.426e-03    2.286e-04    3.312e-04   /
#      CHEB/ -2.311e-04   -5.279e-02   -3.650e-02   -1.791e-02   4.069e-04   /
#      CHEB/ 2.614e-03    2.046e-05    -3.972e-04   1.141e-04    -7.075e-02  /
#      CHEB/ -1.537e-02   -3.241e-03   -1.038e-04   -3.495e-04   -8.037e-04  /
#      CHEB/ -8.572e-05   1.802e-04    1.856e-02    1.355e-02    -1.563e-03  /
#      CHEB/ -3.008e-03   3.405e-04    2.402e-04    -4.377e-04   -2.069e-04  /

# Reaction 6
chebyshev_reaction('aQOOHg (+ M) <=> aQOOH[O] (+ M)',
                   Tmin=180.0, Tmax=1500.0,
                   Pmin=(0.01, 'atm'), Pmax=(98.692, 'atm'),
                   coeffs=[[-7.60400e+00,  1.83000e+00, -1.07700e-01, -1.97100e-03,  4.50300e-03,  2.87700e-03,  4.35600e-05, -4.73900e-04],
                           [ 5.70500e-02,  3.34400e-01, -1.37400e-01,  2.00500e-02, -2.18900e-03,  1.95600e-04,  1.75500e-03, -2.31200e-04],
                           [-2.63500e+00,  4.17100e-01, -6.79400e-02, -4.38700e-02,  9.32800e-03,  2.40500e-03, -1.18600e-03,  3.03300e-05],
                           [-1.52100e+00, -1.45800e-02,  5.58800e-02,  6.50700e-03, -5.94800e-03, -1.52100e-04, -2.35800e-04, -4.38600e-05],
                           [-1.08700e+00, -1.58500e-01,  7.86500e-02,  1.79400e-02, -1.08600e-02, -5.21200e-04,  1.56700e-03, -1.39300e-05],
                           [-3.34400e-01, -3.00000e-01, -9.49600e-02,  3.73200e-02,  1.57000e-02, -3.94000e-03, -1.74600e-03,  1.61600e-05],
                           [-1.33400e-01, -1.16300e-01, -7.84600e-02, -4.88000e-03,  1.29600e-02, -6.99100e-04, -2.36200e-03,  7.20200e-04],
                           [-5.69200e-02,  3.86500e-02, -1.47200e-02, -3.09700e-02, -6.28500e-03,  5.54200e-03,  1.33500e-03, -1.01000e-03],
                           [-4.73600e-02,  7.72500e-02,  6.26100e-03, -1.06500e-02, -4.82600e-03,  1.01500e-04,  7.31500e-04, -1.05200e-04],
                           [ 4.74400e-02,  2.09000e-02,  2.24600e-02,  1.29600e-02, -2.15800e-03, -4.55500e-03, -7.61100e-05,  9.27700e-04]])

# Reaction 7
chebyshev_reaction('aRO2 (+ M) <=> aQOOH[O] (+ M)',
                   Tmin=180.0, Tmax=1500.0,
                   Pmin=(0.01, 'atm'), Pmax=(98.692, 'atm'),
                   coeffs=[[-9.37300e+00,  2.24800e+00, -1.01800e-01,  1.72600e-02, -5.61300e-03,  1.13400e-03, -1.39400e-04,  9.20600e-05],
                           [ 5.47100e+00,  4.77300e-01, -7.65500e-02,  1.27300e-02,  2.35900e-03, -5.47700e-04,  5.12700e-04, -1.99500e-04],
                           [-3.18300e+00,  1.93300e-01, -3.86100e-02, -6.94200e-03,  3.09900e-03, -8.10900e-04,  1.55600e-04,  6.31700e-05],
                           [-1.59300e+00,  4.77200e-02,  5.13800e-03, -7.66900e-03,  1.96800e-03,  4.45400e-04, -2.28800e-04, -6.10200e-05],
                           [-8.09600e-01, -4.63700e-02,  1.51300e-02,  3.97000e-04, -6.32100e-04, -3.81100e-05,  6.56300e-05,  3.35100e-05],
                           [-3.41100e-01, -7.14000e-02, -3.20000e-03,  3.13800e-03,  1.14800e-03,  2.05600e-04, -4.25000e-04, -1.69700e-04],
                           [-1.37200e-01, -5.45400e-02, -7.08900e-03,  4.31600e-03,  3.91400e-05, -5.30100e-04,  1.69800e-04,  5.47200e-05],
                           [-7.62600e-02, -2.10400e-02, -1.47400e-02, -3.71600e-04,  2.01800e-03,  1.81800e-04, -3.93200e-04, -6.53900e-05],
                           [-8.97100e-02, -3.55100e-04, -4.70600e-03, -9.11300e-04,  8.99400e-04, -6.52800e-06, -5.48000e-05, -2.12400e-05],
                           [ 1.19200e-02,  1.87800e-02, -2.60600e-03, -3.88500e-03, -2.57700e-04,  5.60300e-04,  9.06200e-05, -3.90900e-05]])

# Reaction 8
chebyshev_reaction('aadduct (+ M) <=> aQOOH[O] (+ M)',
                   Tmin=180.0, Tmax=1500.0,
                   Pmin=(0.01, 'atm'), Pmax=(98.692, 'atm'),
                   coeffs=[[-1.38800e+01,  1.20200e+00, -1.72400e-02,  2.43400e-02, -5.66700e-03,  4.23500e-04,  3.92800e-04, -1.88200e-04],
                           [ 3.62800e+00,  5.98200e-01, -6.67900e-02,  9.00100e-03,  2.45400e-03, -1.10800e-03,  8.35900e-04, -2.89100e-04],
                           [-3.17300e+00,  2.50700e-01, -3.54900e-02, -8.30100e-03,  2.82400e-03, -8.73100e-04,  1.61300e-04,  1.20800e-04],
                           [-1.58100e+00,  7.16600e-02,  9.39400e-03, -7.34600e-03,  8.36600e-04,  1.04300e-03, -4.02700e-04, -1.52700e-04],
                           [-8.05400e-01, -3.51200e-02,  1.79700e-02,  5.28800e-04, -1.26100e-03,  3.16600e-04, -4.02800e-05, -9.64600e-07],
                           [-3.39200e-01, -6.44700e-02, -2.27100e-03,  2.86000e-03,  1.21000e-03,  8.96600e-05, -3.28800e-04, -1.98900e-04],
                           [-1.34800e-01, -4.73000e-02, -8.02500e-03,  4.03200e-03,  3.50400e-04, -7.50700e-04,  2.50000e-04,  8.61200e-05],
                           [-6.65800e-02, -2.55200e-02, -1.26600e-02, -8.14800e-04,  1.84400e-03,  4.86600e-04, -6.54900e-04,  6.40800e-05],
                           [-8.73200e-02,  3.60300e-03, -6.11500e-03, -7.26600e-04,  1.00500e-03, -2.28200e-04,  1.71400e-04, -1.53200e-04],
                           [ 1.35900e-02,  1.95200e-02, -2.69900e-03, -4.04300e-03, -1.94300e-04,  6.55200e-04, -8.08900e-05,  1.01700e-04]])

# Reaction 9
chebyshev_reaction('O2 + aR (+ M) <=> aQOOH[O] (+ M)',
                   Tmin=180.0, Tmax=1500.0,
                   Pmin=(0.01, 'atm'), Pmax=(98.692, 'atm'),
                   coeffs=[[ 2.57400e+00,  4.06400e+00, -1.35400e+00,  2.91300e-01,  5.12100e-02, -4.56200e-02,  1.31100e-02, -6.86200e-04],
                           [-2.79400e+00, -9.40000e-01,  1.21200e+00, -5.66700e-01,  6.54500e-02,  4.31600e-02, -2.47600e-02,  3.56400e-03],
                           [-1.69300e+00, -3.41600e-01,  3.40600e-01,  1.74300e-02, -9.12600e-02,  4.24900e-02, -5.97400e-03, -2.32100e-03],
                           [-1.00100e+00, -2.14400e-01,  2.10600e-02,  1.28700e-01, -7.44500e-02,  1.44700e-02,  6.91900e-03, -5.89500e-03],
                           [-5.84800e-01, -9.38500e-02, -8.41000e-02,  8.61500e-02, -1.42500e-02, -1.66600e-02,  1.61500e-02, -7.11700e-03],
                           [-2.34400e-01, -8.17400e-02, -5.20900e-02,  1.92500e-02,  2.11500e-02, -2.60700e-02,  1.24000e-02, -5.89200e-04],
                           [-8.51400e-02, -4.93000e-02, -3.13600e-02, -1.16100e-02,  2.66600e-02, -1.23700e-02, -2.24900e-03,  6.74600e-03],
                           [-4.32200e-02, -2.56200e-02, -1.35200e-02, -1.14800e-02,  8.05000e-03,  3.24900e-03, -8.65900e-03,  6.87500e-03],
                           [-8.78300e-02,  2.71300e-02, -8.58200e-03, -7.02600e-03, -6.47600e-04,  7.10200e-03, -6.24000e-03,  1.45500e-03],
                           [ 2.29800e-02,  1.29400e-02,  1.00100e-03, -3.36500e-03, -2.34300e-03,  2.99700e-03, -4.66400e-04, -2.58700e-03]])
#  aQOOHb(+M) <=> aQOOHg(+M)                           1.000e+00 0.000     0.000
#      TCHEB/ 180.000   1500.000 /
#      PCHEB/ 0.010     98.692   /
#      CHEB/ 10 8/
#      CHEB/ -1.035e+01   1.731e+00    9.601e-02    -6.074e-02   -4.527e-02  /
#      CHEB/ 1.632e-03    3.576e-03    1.995e-04    9.626e-01    1.568e+00   /
#      CHEB/ 1.859e-01    1.276e-01    8.364e-03    -2.143e-02   -3.625e-03  /
#      CHEB/ 2.079e-03    -2.647e+00   -6.311e-02   -1.278e-01   -3.253e-02  /
#      CHEB/ 3.483e-02    1.917e-02    -1.592e-03   -3.835e-03   -1.597e+00  /
#      CHEB/ -2.962e-01   -3.697e-02   -4.758e-02   -1.596e-02   6.324e-03   /
#      CHEB/ 5.662e-03    6.956e-04    -7.840e-01   -2.289e-01   8.110e-03   /
#      CHEB/ 9.199e-03    -1.573e-02   -6.745e-03   1.380e-03    1.507e-03   /
#      CHEB/ -3.087e-01   -1.873e-01   -1.711e-02   3.007e-02    5.888e-03   /
#      CHEB/ -5.914e-03   -3.145e-03   3.180e-04    -9.997e-02   -9.756e-02  /
#      CHEB/ -3.618e-02   1.006e-02    9.694e-03    8.719e-04    -1.897e-03  /
#      CHEB/ -7.878e-04   -8.751e-03   -2.020e-02   -2.953e-02   -6.731e-03  /
#      CHEB/ 3.571e-03    2.564e-03    8.981e-05    -5.161e-04   2.442e-02   /
#      CHEB/ 1.745e-02    -6.157e-03   -7.850e-03   -2.565e-03   1.061e-03   /
#      CHEB/ 8.049e-04    -3.764e-06   2.094e-02    3.210e-02    9.549e-03   /
#      CHEB/ -2.917e-03   -2.756e-03   -5.853e-04   4.299e-04    2.530e-04   /
#  aQOOH[O](+M) <=> aQOOHg(+M)                         1.000e+00 0.000     0.000
#      TCHEB/ 180.000   1500.000 /
#      PCHEB/ 0.010     98.692   /
#      CHEB/ 10 8/
#      CHEB/ -2.024e+00   1.830e+00    -1.077e-01   -1.971e-03   4.503e-03   /
#      CHEB/ 2.877e-03    4.356e-05    -4.739e-04   -4.177e+00   3.344e-01   /
#      CHEB/ -1.374e-01   2.005e-02    -2.189e-03   1.956e-04    1.755e-03   /
#      CHEB/ -2.312e-04   -2.490e+00   4.171e-01    -6.794e-02   -4.387e-02  /
#      CHEB/ 9.328e-03    2.405e-03    -1.186e-03   3.033e-05    -1.473e+00  /
#      CHEB/ -1.458e-02   5.588e-02    6.507e-03    -5.948e-03   -1.521e-04  /
#      CHEB/ -2.358e-04   -4.386e-05   -1.074e+00   -1.585e-01   7.865e-02   /
#      CHEB/ 1.794e-02    -1.086e-02   -5.212e-04   1.567e-03    -1.393e-05  /