units(length='cm', time='s', quantity='mol', act_energy='kcal/mol')

ideal_gas(name='gas',
          elements="H D T C Ci O Oi N Ne Ar He Si S F Cl Br I X",
          species="""propene3ol       OH               disub_c4ether
                     H2O              disub_epoxy      gQOOHa
                     propene1ol       gQOOHb           ipropylOOH
                     galdoxy          galkene          CH2O
                     O2               gRO2             gQOOHg
                     gR               galdol           monosub_c4ether
                     HO2              gQOOH[O]""",
          reactions='all',
          initial_state=state(temperature=300.0, pressure=OneAtm))

#-------------------------------------------------------------------------------
# Element data
#-------------------------------------------------------------------------------

element(symbol='Ci', atomic_mass=13.003)
element(symbol='D', atomic_mass=2.014)
element(symbol='Oi', atomic_mass=18.0)
element(symbol='T', atomic_mass=3.016)
element(symbol='X', atomic_mass=195.083)
#-------------------------------------------------------------------------------
# Species data
#-------------------------------------------------------------------------------

species(name='propene3ol',
        atoms='C:3 H:6 O:1',
        thermo=(NASA([10.00, 444.81],
                     [ 3.92769709E+00,  4.89977303E-03,  1.13094874E-04,
                      -2.59008187E-07,  1.86205760E-10, -1.76080525E+04,
                       9.90805416E+00]),
                NASA([444.81, 3000.00],
                     [ 2.61720343E+00,  3.01777872E-02, -1.76511625E-05,
                       5.14864061E-09, -5.91153761E-13, -1.76249530E+04,
                       1.36683107E+01])))

species(name='OH',
        atoms='H:1 O:1',
        thermo=(NASA([10.00, 984.14],
                     [ 3.49686242E+00,  1.83973160E-04, -9.97634499E-07,
                       1.56942783E-09, -6.10128175E-13,  3.41673934E+03,
                       1.48093120E+00]),
                NASA([984.14, 3000.00],
                     [ 3.45221464E+00, -2.95124034E-04,  7.39418622E-07,
                      -2.89309866E-10,  3.53041498E-14,  3.45751599E+03,
                       1.85813897E+00])))

species(name='disub_c4ether',
        atoms='C:4 H:8 O:2',
        thermo=(NASA([10.00, 413.50],
                     [ 3.78241323E+00,  1.89501763E-02,  8.65302396E-05,
                      -1.80580575E-07,  1.13656264E-10, -3.89535820E+04,
                       1.09982450E+01]),
                NASA([413.50, 3000.00],
                     [ 4.29420885E-01,  5.13851903E-02, -3.11292293E-05,
                       9.11498284E-09, -1.03192718E-12, -3.86762876E+04,
                       2.42134976E+01])))

species(name='H2O',
        atoms='H:2 O:1',
        thermo=(NASA([10.00, 773.84],
                     [ 4.00473541E+00, -2.39729134E-04,  8.11862955E-07,
                       1.47891862E-09, -1.19783539E-12, -3.03533807E+04,
                      -9.96254147E-02]),
                NASA([773.84, 3000.00],
                     [ 3.52133374E+00,  1.05377009E-03,  6.40722099E-07,
                      -3.86240235E-10,  5.49243294E-14, -3.02424794E+04,
                       2.34173094E+00])))

species(name='disub_epoxy',
        atoms='C:4 H:8 O:2',
        thermo=(NASA([10.00, 549.41],
                     [ 3.89863211E+00,  5.97532637E-03,  1.66685676E-04,
                      -3.10743768E-07,  1.78330192E-10, -3.72334132E+04,
                       1.13847308E+01]),
                NASA([549.41, 3000.00],
                     [-6.40277648E-01,  6.05960003E-02, -4.13427220E-05,
                       1.31555461E-08, -1.57685017E-12, -3.70602964E+04,
                       2.76005436E+01])))

species(name='gQOOHa',
        atoms='C:4 H:9 O:3',
        thermo=(NASA([10.00, 160.74],
                     [ 3.80808147E+00,  2.31043884E-02,  5.26945984E-04,
                      -3.11500696E-06,  6.03881958E-09, -2.58724358E+04,
                       1.17645316E+01]),
                NASA([160.74, 3000.00],
                     [ 2.90630300E+00,  6.50241173E-02, -4.60073244E-05,
                       1.51330930E-08, -1.87074267E-12, -2.58686113E+04,
                       1.36838819E+01])))

species(name='propene1ol',
        atoms='C:3 H:6 O:1',
        thermo=(NASA([10.00, 459.42],
                     [ 3.91245344E+00,  5.85800161E-03,  1.15412006E-04,
                      -2.68014417E-07,  1.91800131E-10, -1.72502658E+04,
                       8.14807684E+00]),
                NASA([459.42, 3000.00],
                     [ 3.14049093E+00,  2.95550898E-02, -1.73843684E-05,
                       5.11506211E-09, -5.92966137E-13, -1.73584884E+04,
                       9.32215170E+00])))

species(name='gQOOHb',
        atoms='C:4 H:9 O:3',
        thermo=(NASA([10.00, 1018.67],
                     [ 3.99028351E+00,  4.29665712E-02,  2.28338778E-05,
                      -5.67914439E-08,  2.29383258E-11, -2.40521965E+04,
                       1.20326731E+01]),
                NASA([1018.67, 3000.00],
                     [ 1.38304153E+01,  3.88527019E-02, -2.19473905E-05,
                       5.78719895E-09, -5.85097740E-13, -2.78482813E+04,
                      -4.44147388E+01])))

species(name='ipropylOOH',
        atoms='C:3 H:7 O:2',
        thermo=(NASA([10.00, 405.01],
                     [ 3.30075623E+00,  7.58672756E-02, -3.35754269E-04,
                       8.05972164E-07, -6.68864582E-10,  4.33008876E+02,
                       1.43372849E+01]),
                NASA([405.01, 3000.00],
                     [ 2.51742509E+00,  3.72760950E-02, -2.12450220E-05,
                       5.83593926E-09, -6.22110649E-13,  8.76416483E+02,
                       2.20991392E+01])))

species(name='galdoxy',
        atoms='C:4 H:7 O:2',
        thermo=(NASA([10.00, 209.62],
                     [ 3.82641108E+00,  1.84758886E-02,  3.43073800E-04,
                      -1.82817005E-06,  2.98516720E-09, -1.83100132E+04,
                       1.17972706E+01]),
                NASA([209.62, 3000.00],
                     [ 4.22049016E+00,  4.03370149E-02, -2.36129482E-05,
                       6.72979114E-09, -7.47862493E-13, -1.83910830E+04,
                       8.97211724E+00])))

species(name='galkene',
        atoms='C:4 H:8 O:1',
        thermo=(NASA([10.00, 383.47],
                     [ 3.84035604E+00,  1.20378740E-02,  1.87486319E-04,
                      -5.44759148E-07,  4.80711015E-10, -2.12486960E+04,
                       1.02570291E+01]),
                NASA([383.47, 3000.00],
                     [ 4.00413385E+00,  3.79025144E-02, -2.15435710E-05,
                       6.15213311E-09, -6.97446345E-13, -2.14639854E+04,
                       6.98052628E+00])))

species(name='CH2O',
        atoms='C:1 H:2 O:1',
        thermo=(NASA([10.00, 601.31],
                     [ 4.03190845E+00, -1.93233367E-03,  8.89743345E-06,
                       2.98105926E-09, -7.90813886E-12, -1.42276270E+04,
                       3.47574660E+00]),
                NASA([601.31, 3000.00],
                     [ 1.40134195E+00,  9.48858016E-03, -4.43088317E-06,
                       9.48452194E-10, -7.43790219E-14, -1.38013869E+04,
                       1.57423780E+01])))

species(name='O2',
        atoms='O:2',
        thermo=(NASA([10.00, 605.96],
                     [ 3.50743498E+00, -4.43860349E-04,  1.45938058E-06,
                       1.61509333E-09, -2.32050052E-12, -9.24756224E+02,
                       4.72183634E+00]),
                NASA([605.96, 3000.00],
                     [ 2.87462882E+00,  2.17840991E-03, -1.18262921E-06,
                       2.86910493E-10, -2.53297146E-14, -8.19517838E+02,
                       7.69331810E+00])))

species(name='gRO2',
        atoms='C:4 H:9 O:3',
        thermo=(NASA([10.00, 177.33],
                     [ 3.70632176E+00,  3.49733664E-02,  4.64036392E-04,
                      -3.18637835E-06,  6.38178607E-09, -2.71538417E+04,
                       1.24459269E+01]),
                NASA([177.33, 3000.00],
                     [ 4.82062697E+00,  5.17179689E-02, -3.18386818E-05,
                       9.52247045E-09, -1.10180288E-12, -2.72592123E+04,
                       7.14082953E+00])))

species(name='gQOOHg',
        atoms='C:4 H:9 O:3',
        thermo=(NASA([10.00, 475.03],
                     [ 3.42273720E+00,  4.98344215E-02,  6.47820920E-05,
                      -2.49842966E-07,  1.98636537E-10, -2.11297736E+04,
                       1.41578583E+01]),
                NASA([475.03, 3000.00],
                     [ 5.94049074E+00,  5.53778585E-02, -3.71708255E-05,
                       1.17540477E-08, -1.40812095E-12, -2.16707279E+04,
                       7.09201218E-01])))

species(name='gR',
        atoms='C:4 H:9 O:1',
        thermo=(NASA([10.00, 638.24],
                     [ 3.37074633E+00,  5.17529751E-02, -6.54872940E-05,
                       6.88084237E-08, -3.21569794E-11, -9.17507051E+03,
                       1.14339669E+01]),
                NASA([638.24, 3000.00],
                     [ 3.99410860E+00,  4.06314915E-02, -2.23932510E-05,
                       6.08356263E-09, -6.49884708E-13, -9.10769580E+03,
                       9.85769960E+00])))

species(name='galdol',
        atoms='C:4 H:8 O:2',
        thermo=(NASA([10.00, 506.68],
                     [ 3.85380874E+00,  9.21272695E-03,  1.86712348E-04,
                      -3.96417049E-07,  2.55528268E-10, -4.48398420E+04,
                       1.24312743E+01]),
                NASA([506.68, 3000.00],
                     [ 1.49710213E+00,  5.65979142E-02, -3.87709084E-05,
                       1.23682052E-08, -1.48287964E-12, -4.49704514E+04,
                       1.85531759E+01])))

species(name='monosub_c4ether',
        atoms='C:4 H:8 O:2',
        thermo=(NASA([10.00, 380.36],
                     [ 3.47743996E+00,  6.08051311E-02, -2.78518945E-04,
                       8.23182713E-07, -7.87158031E-10, -3.18118424E+04,
                       1.06415154E+01]),
                NASA([380.36, 3000.00],
                     [-1.09346901E+00,  5.35985968E-02, -3.21081420E-05,
                       9.20818293E-09, -1.01830294E-12, -3.10642823E+04,
                       3.35312368E+01])))

species(name='HO2',
        atoms='H:1 O:2',
        thermo=(NASA([10.00, 891.11],
                     [ 4.02887004E+00, -1.75769289E-03,  1.08726004E-05,
                      -1.13812972E-08,  3.90113097E-12,  4.95165001E+02,
                       4.69302008E+00]),
                NASA([891.11, 3000.00],
                     [ 3.06571044E+00,  4.28505005E-03, -2.19325920E-06,
                       5.58882699E-10, -5.61246669E-14,  5.98557610E+02,
                       8.84564156E+00])))

species(name='gQOOH[O]',
        atoms='C:4 H:9 O:3',
        thermo=(NASA([10.00, 535.23],
                     [ 3.83107445E+00,  1.02302002E-02,  2.29377261E-04,
                      -4.59095575E-07,  2.77765018E-10, -1.76280068E+04,
                       1.41034859E+01]),
                NASA([535.23, 3000.00],
                     [-4.19283096E-01,  7.69784620E-02, -5.57279000E-05,
                       1.81378295E-08, -2.18295635E-12, -1.76741201E+04,
                       2.72711816E+01])))

#-------------------------------------------------------------------------------
# Reaction data
#-------------------------------------------------------------------------------

# Reaction 1
chebyshev_reaction('gQOOH[O] (+ M) <=> gRO2 (+ M)',
                   Tmin=180.0, Tmax=1500.0,
                   Pmin=(0.01, 'atm'), Pmax=(98.692, 'atm'),
                   coeffs=[[ 4.83800e+00,  2.10400e+00, -5.71200e-02, -4.87600e-03, -4.37900e-03, -4.40500e-04, -1.90500e-06,  1.11600e-05],
                           [-6.59100e+00,  2.87300e-01, -3.64400e-02,  1.46400e-02, -1.43400e-03, -2.27100e-04,  1.00900e-04,  1.86700e-04],
                           [-3.55000e+00,  1.31900e-01, -4.89600e-02, -4.53100e-03, -3.28300e-03, -3.41700e-04,  1.85600e-04,  6.58300e-05],
                           [-1.85800e+00,  5.80600e-02, -3.71400e-03, -3.29100e-04, -3.54400e-04, -3.49800e-05,  1.55400e-04,  4.44200e-05],
                           [-1.01000e+00, -2.65200e-02,  1.28600e-02,  1.96100e-04,  4.99900e-04,  4.16000e-04,  2.13400e-04,  2.76700e-05],
                           [-5.60800e-01, -6.96900e-02,  1.44200e-02,  2.04700e-03,  2.06200e-04,  3.45900e-04,  1.09200e-04, -2.20500e-05],
                           [-2.38000e-01, -7.65600e-02,  3.09300e-03,  2.80800e-03, -5.23000e-05,  2.12700e-04,  6.91400e-05, -4.18700e-05],
                           [-7.30500e-02, -5.05700e-02, -6.98200e-03,  2.74600e-03,  1.28000e-04, -8.11800e-05, -2.00400e-05, -3.74000e-05],
                           [-1.16400e-02, -2.01800e-02, -1.45900e-02,  1.04300e-05,  3.72600e-04, -1.87800e-04, -6.42700e-05, -1.03600e-05],
                           [-1.39800e-02,  1.16700e-02, -1.07800e-02, -1.61400e-03,  6.54500e-04, -1.94600e-04, -1.49400e-04,  5.46500e-06]])

# Reaction 2
chebyshev_reaction('gQOOHa (+ M) <=> gRO2 (+ M)',
                   Tmin=180.0, Tmax=1500.0,
                   Pmin=(0.01, 'atm'), Pmax=(98.692, 'atm'),
                   coeffs=[[ 1.62500e+00,  7.69900e-01, -4.14800e-02, -5.48500e-03,  2.89600e-03,  4.97200e-04, -1.12000e-04, -1.86600e-05],
                           [ 1.10900e+00,  1.17200e+00, -1.03900e-02, -1.30500e-02,  3.88200e-03,  8.20000e-04, -1.27000e-05, -5.32900e-05],
                           [-2.40700e+00,  4.29400e-01,  8.87000e-02,  1.06400e-04, -2.59700e-03,  5.90600e-04,  3.27200e-04, -4.90500e-05],
                           [-1.67800e+00, -1.36000e-01,  8.97900e-02,  2.34400e-02, -4.69700e-03, -7.38200e-04,  4.65500e-04,  4.00300e-05],
                           [-9.98500e-01, -3.25200e-01,  1.76200e-02,  2.98100e-02,  8.64100e-04, -1.62000e-03,  4.45200e-05,  1.39500e-04],
                           [-5.36800e-01, -2.66000e-01, -4.36100e-02,  1.48700e-02,  5.76300e-03, -3.91400e-04, -3.98500e-04,  5.63000e-05],
                           [-1.91800e-01, -1.42300e-01, -5.62300e-02, -3.61400e-03,  4.46400e-03,  1.25800e-03, -1.50000e-04, -1.02600e-04],
                           [-4.84400e-02, -4.34400e-02, -3.83400e-02, -1.07800e-02, -6.95400e-05,  1.23400e-03,  4.03200e-04, -6.25800e-05],
                           [ 1.70400e-02,  1.38000e-02, -1.62700e-02, -7.64500e-03, -2.48200e-03, -1.29400e-04,  4.40800e-04,  1.31900e-04],
                           [ 2.91000e-02,  3.62100e-02, -1.17000e-03, -2.34700e-03, -1.52200e-03, -1.08200e-03, -1.04900e-04,  1.92800e-04]])

# Reaction 3
chebyshev_reaction('gQOOHg (+ M) <=> gRO2 (+ M)',
                   Tmin=180.0, Tmax=1500.0,
                   Pmin=(0.01, 'atm'), Pmax=(98.692, 'atm'),
                   coeffs=[[ 4.32900e+00,  1.05200e+00, -9.34600e-02,  2.07500e-02, -4.21900e-04, -2.76900e-04,  2.99600e-06, -2.90600e-05],
                           [-4.78100e+00,  1.20100e+00,  1.73700e-02, -2.26600e-03,  6.14000e-03, -7.29600e-04, -2.44800e-04,  5.41700e-06],
                           [-3.59200e+00, -3.42400e-02,  1.09700e-01,  1.33000e-02, -3.33300e-03,  1.44900e-03, -1.93700e-04, -1.44100e-04],
                           [-1.86300e+00, -3.67500e-01, -3.08600e-02,  3.70200e-02,  6.95900e-04, -1.97700e-03,  7.12900e-04,  7.25500e-06],
                           [-8.14100e-01, -1.69500e-01, -8.06500e-02,  3.35800e-03,  8.50600e-03, -8.96300e-04, -2.02300e-04,  2.66100e-04],
                           [-3.71100e-01, -4.84400e-02, -5.85400e-03, -1.68800e-02, -5.24000e-04,  2.67700e-03, -8.19600e-05, -1.33700e-04],
                           [-2.02000e-01, -6.20900e-02,  1.68100e-02,  6.59300e-03, -6.13200e-03, -4.23600e-04,  1.17900e-03, -8.00000e-05],
                           [-9.49200e-02, -8.72000e-02, -2.08800e-02,  1.60700e-02,  2.63800e-03, -2.93400e-03,  1.18300e-04,  4.54300e-04],
                           [-1.02100e-02, -5.90800e-02, -3.85400e-02, -4.13900e-03,  7.03200e-03,  6.41100e-04, -1.16500e-03,  1.27700e-04],
                           [ 2.24100e-02,  1.67100e-02, -2.70400e-02, -1.48400e-02, -2.14500e-04,  2.58300e-03,  5.31400e-05, -3.84200e-04]])

# Reaction 4
chebyshev_reaction('gQOOHb (+ M) <=> gRO2 (+ M)',
                   Tmin=180.0, Tmax=1500.0,
                   Pmin=(0.01, 'atm'), Pmax=(98.692, 'atm'),
                   coeffs=[[ 7.96500e-01,  7.53400e-01, -3.66300e-02, -2.08100e-03,  1.51700e-03, -2.39100e-05, -7.62400e-05,  2.82100e-06],
                           [ 2.63300e+00,  1.14000e+00, -1.20700e-02, -5.97800e-03,  1.85800e-03,  6.96100e-05, -9.15100e-05, -7.48800e-06],
                           [-2.37300e+00,  4.08100e-01,  6.99900e-02,  8.60600e-04, -1.13300e-03,  1.59000e-04,  4.24600e-05, -2.05800e-05],
                           [-1.71500e+00, -1.15100e-01,  6.31200e-02,  1.40400e-02, -1.28500e-03, -2.90600e-04,  1.14400e-04,  2.17000e-06],
                           [-9.22000e-01, -2.66800e-01,  4.26900e-03,  1.45600e-02,  1.75600e-03, -3.35900e-04,  8.08400e-06,  1.85400e-05],
                           [-4.65000e-01, -2.10500e-01, -3.23700e-02,  3.64500e-03,  2.62600e-03,  4.02300e-04, -3.81600e-06, -1.98400e-05],
                           [-1.53100e-01, -1.14700e-01, -3.33100e-02, -4.04000e-03,  4.26100e-04,  6.45900e-04,  1.83900e-04, -2.81900e-05],
                           [-5.93400e-02, -4.18700e-02, -2.16900e-02, -3.88500e-03, -1.12700e-03,  5.21900e-06,  2.08400e-04,  3.48600e-05],
                           [ 2.91400e-02,  1.93900e-03, -1.21000e-02, -1.56000e-03, -3.87700e-04, -5.09100e-04, -5.51700e-05,  6.34700e-05],
                           [ 1.06900e-02,  2.37400e-02, -5.97700e-03, -1.10700e-03,  8.78200e-04, -2.92200e-04, -2.84000e-04,  6.13600e-06]])

# Reaction 5
chebyshev_reaction('O2 + gR (+ M) <=> gRO2 (+ M)',
                   Tmin=180.0, Tmax=1500.0,
                   Pmin=(0.01, 'atm'), Pmax=(98.692, 'atm'),
                   coeffs=[[ 1.17300e+01,  1.05200e+00, -2.87400e-01,  8.59100e-02, -2.01100e-02,  3.26300e-03, -2.95500e-04, -1.25600e-04],
                           [-2.98700e+00,  1.42200e+00, -2.26300e-01,  2.17600e-02,  1.38200e-02, -8.68300e-03,  2.04000e-03, -2.31600e-04],
                           [-1.90100e+00,  6.85400e-01,  1.41300e-02, -3.19500e-02,  1.60900e-02, -4.10900e-03, -4.37300e-05,  1.79900e-04],
                           [-1.17200e+00,  1.72200e-01,  9.65300e-02, -2.45000e-02,  4.83900e-03, -1.51700e-04, -3.35800e-04,  6.25900e-05],
                           [-6.79900e-01, -7.31500e-02,  7.66800e-02, -2.77000e-03, -1.46900e-03,  3.25400e-04,  4.92600e-05,  1.81500e-05],
                           [-3.59200e-01, -1.44000e-01,  3.23900e-02,  7.62900e-03, -1.48500e-03, -1.56900e-04,  1.40800e-04,  3.59300e-05],
                           [-1.62900e-01, -1.26000e-01, -2.39500e-03,  8.08400e-03, -1.50500e-04, -2.34000e-04,  9.16300e-05,  3.19100e-05],
                           [-5.23300e-02, -7.64200e-02, -1.98100e-02,  4.34200e-03,  7.60700e-04, -1.75800e-04,  2.50500e-05,  6.33100e-05],
                           [ 2.20100e-03, -2.68100e-02, -2.25200e-02, -1.07900e-04,  1.20000e-03, -8.55400e-05, -1.24300e-04,  9.14500e-05],
                           [ 2.22300e-02,  9.06100e-03, -1.60600e-02, -3.39900e-03,  1.02600e-03,  1.04400e-04, -2.43000e-04,  4.94800e-05]])
#  gRO2(+M) <=> gQOOH[O](+M)                           1.000e+00 0.000     0.000
#      TCHEB/ 180.000   1500.000 /
#      PCHEB/ 0.010     98.692   /
#      CHEB/ 10 8/
#      CHEB/ -8.519e+00   2.104e+00    -5.712e-02   -4.876e-03   -4.379e-03  /
#      CHEB/ -4.405e-04   -1.905e-06   1.116e-05    3.258e+00    2.873e-01   /
#      CHEB/ -3.644e-02   1.464e-02    -1.434e-03   -2.271e-04   1.009e-04   /
#      CHEB/ 1.867e-04    -3.377e+00   1.319e-01    -4.896e-02   -4.531e-03  /
#      CHEB/ -3.283e-03   -3.417e-04   1.856e-04    6.583e-05    -1.733e+00  /
#      CHEB/ 5.806e-02    -3.714e-03   -3.291e-04   -3.544e-04   -3.498e-05  /
#      CHEB/ 1.554e-04    4.442e-05    -9.562e-01   -2.652e-02   1.286e-02   /
#      CHEB/ 1.961e-04    4.999e-04    4.160e-04    2.134e-04    2.767e-05   /
#      CHEB/ -5.418e-01   -6.969e-02   1.442e-02    2.047e-03    2.062e-04   /
#      CHEB/ 3.459e-04    1.092e-04    -2.205e-05   -2.317e-01   -7.656e-02  /
#      CHEB/ 3.093e-03    2.808e-03    -5.230e-05   2.127e-04    6.914e-05   /
#      CHEB/ -4.187e-05   -7.113e-02   -5.057e-02   -6.982e-03   2.746e-03   /
#      CHEB/ 1.280e-04    -8.118e-05   -2.004e-05   -3.740e-05   -1.118e-02  /
#      CHEB/ -2.018e-02   -1.459e-02   1.043e-05    3.726e-04    -1.878e-04  /
#      CHEB/ -6.427e-05   -1.036e-05   -1.401e-02   1.167e-02    -1.078e-02  /
#      CHEB/ -1.614e-03   6.545e-04    -1.946e-04   -1.494e-04   5.465e-06   /

# Reaction 6
chebyshev_reaction('gQOOHa (+ M) <=> gQOOH[O] (+ M)',
                   Tmin=180.0, Tmax=1500.0,
                   Pmin=(0.01, 'atm'), Pmax=(98.692, 'atm'),
                   coeffs=[[-1.07100e+01,  1.21000e+00, -1.90700e-01,  4.45900e-02, -2.36600e-03, -3.45700e-03, -4.29800e-05, -5.74100e-04],
                           [ 2.56400e+00,  1.33500e+00, -3.52700e-02, -4.34600e-02,  1.75800e-02,  2.11100e-03, -1.37400e-03,  7.60700e-04],
                           [-3.52300e+00,  3.87600e-01,  3.53400e-02, -2.80500e-02, -1.25600e-02,  4.36000e-03,  6.11400e-04, -7.40900e-05],
                           [-2.04500e+00, -5.47200e-02,  5.88300e-02,  2.38100e-02, -8.79500e-03, -1.47900e-03,  1.24700e-03,  4.24700e-05],
                           [-1.17000e+00, -2.03300e-01,  7.66700e-03,  3.10000e-02,  5.33500e-03, -2.63100e-03, -6.64000e-05,  2.35500e-04],
                           [-6.45600e-01, -1.86900e-01, -2.58100e-02,  1.10500e-02,  1.01100e-02,  4.13900e-04, -1.06100e-03, -7.26200e-05],
                           [-2.52100e-01, -1.16800e-01, -3.53400e-02, -7.15600e-03,  4.86200e-03,  2.67700e-03, -2.91100e-04, -3.47700e-04],
                           [-6.18400e-02, -4.40300e-02, -2.20500e-02, -1.16100e-02, -1.76000e-03,  1.88700e-03,  5.81100e-04, -1.72100e-04],
                           [ 6.99900e-03,  2.67400e-03, -1.15100e-02, -7.13200e-03, -4.28900e-03, -1.37200e-04,  7.19200e-04,  1.27100e-04],
                           [-7.37700e-03,  2.97100e-02,  2.39000e-03, -8.04400e-04, -2.46300e-03, -1.44600e-03,  2.07800e-05,  2.41600e-04]])

# Reaction 7
chebyshev_reaction('gQOOHg (+ M) <=> gQOOH[O] (+ M)',
                   Tmin=180.0, Tmax=1500.0,
                   Pmin=(0.01, 'atm'), Pmax=(98.692, 'atm'),
                   coeffs=[[-7.04200e+00,  1.36600e+00, -1.48800e-01,  6.56600e-02, -6.84400e-03, -3.35200e-03, -1.25200e-03, -4.41600e-04],
                           [-4.39100e+00,  1.24400e+00, -1.97000e-02, -3.02800e-02,  1.87500e-02, -5.81200e-04,  2.63000e-04,  4.95900e-04],
                           [-4.48300e+00, -9.40100e-02,  3.88900e-02, -1.81600e-02, -1.07100e-02,  3.68900e-03,  3.42900e-04,  2.23100e-04],
                           [-2.11900e+00, -3.01800e-01, -5.04300e-02,  3.59400e-02, -3.22900e-03, -2.67500e-03,  1.03500e-03,  7.89400e-05],
                           [-9.49400e-01, -8.72000e-02, -7.63000e-02,  7.48100e-03,  1.12300e-02, -1.32800e-03, -4.22100e-04,  2.29500e-04],
                           [-5.00100e-01,  9.43000e-03,  1.09300e-02, -1.52300e-02,  3.07000e-03,  3.15100e-03, -6.02400e-04, -3.00500e-04],
                           [-2.42300e-01, -3.64400e-02,  2.87500e-02,  5.88100e-03, -4.83700e-03,  4.83100e-04,  1.00200e-03, -2.44200e-04],
                           [-1.11100e-01, -7.84300e-02, -1.17500e-02,  1.53300e-02,  2.11200e-03, -2.49400e-03,  1.58200e-04,  3.86100e-04],
                           [-2.22900e-02, -6.41600e-02, -3.69800e-02, -4.66000e-03,  5.84500e-03,  8.03500e-04, -9.97300e-04,  1.09500e-04],
                           [-2.43000e-02,  1.51300e-02, -2.40800e-02, -1.40100e-02, -1.04300e-03,  2.35000e-03,  1.55900e-04, -3.72700e-04]])

# Reaction 8
chebyshev_reaction('gQOOHb (+ M) <=> gQOOH[O] (+ M)',
                   Tmin=180.0, Tmax=1500.0,
                   Pmin=(0.01, 'atm'), Pmax=(98.692, 'atm'),
                   coeffs=[[-1.01400e+01,  1.05700e+00, -1.38200e-02,  3.01900e-02,  1.25300e-03, -3.81100e-03, -2.18900e-03, -4.95900e-04],
                           [ 2.33200e+00,  1.28500e+00, -1.29400e-01, -1.41400e-02,  2.95000e-03,  3.37100e-03,  1.33600e-03,  1.94300e-04],
                           [-3.18300e+00,  3.97100e-01, -3.57200e-02, -3.34900e-02, -9.19500e-03,  1.33100e-03,  1.51100e-03,  5.56000e-04],
                           [-1.99300e+00, -1.82600e-02,  5.26500e-02,  1.10900e-02, -4.79300e-03, -1.47400e-03,  7.25800e-05,  1.77100e-04],
                           [-1.09700e+00, -1.61300e-01,  1.53400e-02,  2.07500e-02,  3.88100e-03, -5.19000e-04, -3.53400e-04, -1.36200e-04],
                           [-5.93300e-01, -1.36700e-01, -1.49300e-02,  7.52400e-03,  5.41800e-03,  9.49900e-04, -3.16700e-04, -2.44400e-04],
                           [-2.30100e-01, -8.47400e-02, -2.05900e-02, -4.25000e-03,  1.29600e-03,  1.38800e-03,  2.23700e-04, -1.25500e-04],
                           [-7.08500e-02, -3.29200e-02, -1.16500e-02, -4.46300e-03, -1.78800e-03,  1.66900e-04,  3.13200e-04,  4.76500e-05],
                           [-3.34300e-03, -5.99600e-03, -9.89100e-03, -2.28500e-03, -1.33000e-03, -5.23700e-04,  5.87200e-05,  9.14400e-05],
                           [-2.20900e-02,  2.10900e-02, -2.78400e-03,  1.21800e-05,  1.90100e-04, -6.16800e-04, -2.77100e-04,  2.17000e-05]])

# Reaction 9
chebyshev_reaction('O2 + gR (+ M) <=> gQOOH[O] (+ M)',
                   Tmin=180.0, Tmax=1500.0,
                   Pmin=(0.01, 'atm'), Pmax=(98.692, 'atm'),
                   coeffs=[[ 1.47500e+00,  1.36800e+00,  3.39200e-02,  1.70500e-01,  1.73600e-02,  5.14900e-03, -3.28800e-03, -1.87200e-03],
                           [-3.59800e+00,  7.78000e-01, -3.80700e-01, -1.39300e-01, -7.46100e-03, -1.25500e-02,  2.77300e-03,  1.68700e-03],
                           [-2.34300e+00,  4.06700e-01,  2.06900e-02, -9.87300e-02,  1.06800e-02, -2.22300e-03,  5.26100e-04,  2.12800e-03],
                           [-1.29200e+00,  1.21900e-01,  1.80000e-01, -2.56800e-02,  6.09500e-03,  3.16400e-03, -3.02300e-03, -1.41500e-04],
                           [-7.13300e-01, -9.99700e-02,  1.21900e-01,  6.11600e-03, -4.41000e-03,  4.90600e-03, -1.91000e-03, -1.08100e-05],
                           [-4.26300e-01, -1.44100e-01,  5.67200e-02,  2.26100e-02, -5.88100e-03,  3.86800e-03, -1.01400e-03, -2.36600e-04],
                           [-1.71400e-01, -1.35300e-01, -5.21000e-03,  1.68500e-02, -5.74600e-03,  2.34300e-03,  7.41500e-05, -2.44100e-04],
                           [-6.10800e-02, -7.16200e-02, -2.30300e-02,  1.24600e-02, -2.78000e-03,  7.18100e-04,  4.42900e-04, -5.14200e-04],
                           [-5.18300e-03, -3.34900e-02, -3.35600e-02,  2.17800e-03, -1.06000e-03, -3.39100e-04,  7.62400e-04, -4.05700e-04],
                           [-2.47000e-02,  1.80500e-02, -1.61600e-02,  4.42600e-05,  9.65500e-04, -9.73000e-04,  4.46100e-04, -4.61400e-04]])
#  gRO2(+M) <=> gQOOHa(+M)                             1.000e+00 0.000     0.000
#      TCHEB/ 180.000   1500.000 /
#      PCHEB/ 0.010     98.692   /
#      CHEB/ 10 8/
#      CHEB/ -4.153e-01   7.699e-01    -4.148e-02   -5.485e-03   2.896e-03   /
#      CHEB/ 4.972e-04    -1.120e-04   -1.866e-05   2.689e+00    1.172e+00   /
#      CHEB/ -1.039e-02   -1.305e-02   3.882e-03    8.200e-04    -1.270e-05  /
#      CHEB/ -5.329e-05   -2.245e+00   4.294e-01    8.870e-02    1.064e-04   /
#      CHEB/ -2.597e-03   5.906e-04    3.272e-04    -4.905e-05   -1.604e+00  /
#      CHEB/ -1.360e-01   8.979e-02    2.344e-02    -4.697e-03   -7.382e-04  /
#      CHEB/ 4.655e-04    4.003e-05    -9.700e-01   -3.252e-01   1.762e-02   /
#      CHEB/ 2.981e-02    8.641e-04    -1.620e-03   4.452e-05    1.395e-04   /
#      CHEB/ -5.270e-01   -2.660e-01   -4.361e-02   1.487e-02    5.763e-03   /
#      CHEB/ -3.914e-04   -3.985e-04   5.630e-05    -1.889e-01   -1.423e-01  /
#      CHEB/ -5.623e-02   -3.614e-03   4.464e-03    1.258e-03    -1.500e-04  /
#      CHEB/ -1.026e-04   -4.781e-02   -4.344e-02   -3.834e-02   -1.078e-02  /
#      CHEB/ -6.954e-05   1.234e-03    4.032e-04    -6.258e-05   1.704e-02   /
#      CHEB/ 1.380e-02    -1.627e-02   -7.645e-03   -2.482e-03   -1.294e-04  /
#      CHEB/ 4.408e-04    1.319e-04    2.899e-02    3.621e-02    -1.170e-03  /
#      CHEB/ -2.347e-03   -1.522e-03   -1.082e-03   -1.049e-04   1.928e-04   /
#  gQOOH[O](+M) <=> gQOOHa(+M)                         1.000e+00 0.000     0.000
#      TCHEB/ 180.000   1500.000 /
#      PCHEB/ 0.010     98.692   /
#      CHEB/ 10 8/
#      CHEB/ 6.031e-01    1.210e+00    -1.907e-01   4.459e-02    -2.366e-03  /
#      CHEB/ -3.457e-03   -4.298e-05   -5.741e-04   -5.704e+00   1.335e+00   /
#      CHEB/ -3.527e-02   -4.346e-02   1.758e-02    2.111e-03    -1.374e-03  /
#      CHEB/ 7.607e-04    -3.534e+00   3.876e-01    3.534e-02    -2.805e-02  /
#      CHEB/ -1.256e-02   4.360e-03    6.114e-04    -7.409e-05   -2.096e+00  /
#      CHEB/ -5.472e-02   5.883e-02    2.381e-02    -8.795e-03   -1.479e-03  /
#      CHEB/ 1.247e-03    4.247e-05    -1.195e+00   -2.033e-01   7.667e-03   /
#      CHEB/ 3.100e-02    5.335e-03    -2.631e-03   -6.640e-05   2.355e-04   /
#      CHEB/ -6.548e-01   -1.869e-01   -2.581e-02   1.105e-02    1.011e-02   /
#      CHEB/ 4.139e-04    -1.061e-03   -7.262e-05   -2.554e-01   -1.168e-01  /
#      CHEB/ -3.534e-02   -7.156e-03   4.862e-03    2.677e-03    -2.911e-04  /
#      CHEB/ -3.477e-04   -6.313e-02   -4.403e-02   -2.205e-02   -1.161e-02  /
#      CHEB/ -1.760e-03   1.887e-03    5.811e-04    -1.721e-04   6.534e-03   /
#      CHEB/ 2.674e-03    -1.151e-02   -7.132e-03   -4.289e-03   -1.372e-04  /