units(length='cm', time='s', quantity='mol', act_energy='kcal/mol')

ideal_gas(name='gas',
          elements="H D T C Ci O Oi N Ne Ar He Si S F Cl Br I X",
          species="""aOOHbalkene      OH               ibutanal
                     aR               performic_acid   disub_c4ether
                     aQOOHb           H                aadduct
                     trisub_epoxy     ibutenol         aQOOH[O]
                     ipropyl          aRO2             O2
                     formic_acid      propene          aQOOHg
                     ibut_peroxyacid  HO2              CH3""",
          reactions='all',
          initial_state=state(temperature=300.0, pressure=OneAtm))

#-------------------------------------------------------------------------------
# Element data
#-------------------------------------------------------------------------------

element(symbol='Ci', atomic_mass=13.003)
element(symbol='D', atomic_mass=2.014)
element(symbol='Oi', atomic_mass=18.0)
element(symbol='T', atomic_mass=3.016)
element(symbol='X', atomic_mass=195.083)
#-------------------------------------------------------------------------------
# Species data
#-------------------------------------------------------------------------------

species(name='aOOHbalkene',
        atoms='C:3 H:6 O:3',
        thermo=(NASA([10.00, 497.41],
                     [ 3.76691735E+00,  1.51417956E-02,  1.85499431E-04,
                      -4.61303214E-07,  3.27678941E-10, -3.23087819E+04,
                       1.09903968E+01]),
                NASA([497.41, 3000.00],
                     [ 6.20882781E+00,  4.08866173E-02, -2.89934946E-05,
                       9.60428979E-09, -1.19355432E-12, -3.31131112E+04,
                      -4.72842811E+00])))

species(name='OH',
        atoms='H:1 O:1',
        thermo=(NASA([10.00, 984.14],
                     [ 3.49686242E+00,  1.83973160E-04, -9.97634499E-07,
                       1.56942783E-09, -6.10128175E-13,  3.41673934E+03,
                       1.48093120E+00]),
                NASA([984.14, 3000.00],
                     [ 3.45221464E+00, -2.95124034E-04,  7.39418622E-07,
                      -2.89309866E-10,  3.53041498E-14,  3.45751599E+03,
                       1.85813897E+00])))

species(name='ibutanal',
        atoms='C:4 H:8 O:1',
        thermo=(NASA([10.00, 683.88],
                     [ 3.57157346E+00,  3.36936906E-02, -1.78475021E-05,
                       1.31946716E-08, -7.58008388E-12, -2.55069304E+04,
                       1.05595084E+01]),
                NASA([683.88, 3000.00],
                     [ 1.29043622E+00,  4.14804229E-02, -2.27411206E-05,
                       6.08619500E-09, -6.38995128E-13, -2.50650113E+04,
                       2.16477430E+01])))

species(name='aR',
        atoms='C:4 H:9 O:1',
        thermo=(NASA([10.00, 455.22],
                     [ 3.59625500E+00,  3.38947981E-02,  7.37257079E-06,
                      -3.99275335E-08,  2.49019944E-11, -1.51146103E+04,
                       1.18269265E+01]),
                NASA([455.22, 3000.00],
                     [ 2.49586309E+00,  4.35639890E-02, -2.44887770E-05,
                       6.73363769E-09, -7.23862433E-13, -1.50144272E+04,
                       1.62696907E+01])))

species(name='performic_acid',
        atoms='C:1 H:2 O:3',
        thermo=(NASA([10.00, 590.95],
                     [ 3.92633851E+00,  4.24517168E-03,  6.71106764E-05,
                      -1.36545385E-07,  8.03337864E-11, -3.63028176E+04,
                       8.06485813E+00]),
                NASA([590.95, 3000.00],
                     [ 4.39992934E+00,  1.85411415E-02, -1.36005501E-05,
                       4.62292431E-09, -5.88463603E-13, -3.66643888E+04,
                       3.44353230E+00])))

species(name='disub_c4ether',
        atoms='C:4 H:8 O:2',
        thermo=(NASA([10.00, 413.50],
                     [ 3.78241323E+00,  1.89501763E-02,  8.65302396E-05,
                      -1.80580575E-07,  1.13656264E-10, -3.96075899E+04,
                       1.09982450E+01]),
                NASA([413.50, 3000.00],
                     [ 4.29420885E-01,  5.13851903E-02, -3.11292293E-05,
                       9.11498284E-09, -1.03192718E-12, -3.93302955E+04,
                       2.42134976E+01])))

species(name='aQOOHb',
        atoms='C:4 H:9 O:3',
        thermo=(NASA([10.00, 412.78],
                     [ 3.15498836E+00,  8.55068303E-02, -2.35307993E-04,
                       4.71983261E-07, -3.62709267E-10, -2.93627474E+04,
                       1.52522123E+01]),
                NASA([412.78, 3000.00],
                     [ 4.18099845E+00,  5.26168288E-02, -3.23998410E-05,
                       9.59389339E-09, -1.09464519E-12, -2.92519525E+04,
                       1.35782328E+01])))

species(name='H',
        atoms='H:1',
        thermo=(NASA([10.00, 794.01],
                     [ 2.50000000E+00,  1.99051163E-15, -1.19089508E-17,
                       2.10805655E-20, -1.11017699E-23,  2.54725594E+04,
                      -4.61279342E-01]),
                NASA([794.01, 3000.00],
                     [ 2.50000000E+00,  1.52667235E-14, -1.58445285E-17,
                       6.63088600E-21, -9.62111674E-25,  2.54725594E+04,
                      -4.61279342E-01])))

species(name='aadduct',
        atoms='C:4 H:9 O:3',
        thermo=(NASA([10.00, 449.84],
                     [ 3.06901904E+00,  9.20724491E-02, -2.68085092E-04,
                       5.15249897E-07, -3.68046586E-10, -3.15858893E+04,
                       1.46591735E+01]),
                NASA([449.84, 3000.00],
                     [ 4.11210745E+00,  5.16955724E-02, -2.97401041E-05,
                       8.32758939E-09, -9.08861448E-13, -3.13650484E+04,
                       1.39578825E+01])))

species(name='trisub_epoxy',
        atoms='C:4 H:8 O:2',
        thermo=(NASA([10.00, 209.19],
                     [ 3.75295042E+00,  2.37546930E-02,  1.26610110E-04,
                      -4.78364365E-07,  5.79468168E-10, -3.92076204E+04,
                       1.12739684E+01]),
                NASA([209.19, 3000.00],
                     [ 2.64185254E+00,  4.50006531E-02, -2.57361066E-05,
                       7.15266054E-09, -7.72980731E-13, -3.91611348E+04,
                       1.48960343E+01])))

species(name='ibutenol',
        atoms='C:4 H:8 O:1',
        thermo=(NASA([10.00, 135.97],
                     [ 3.95714996E+00,  5.72646980E-03,  4.63611760E-04,
                      -3.04137514E-06,  6.85019471E-09, -2.32933105E+04,
                       8.21931848E+00]),
                NASA([135.97, 3000.00],
                     [ 3.32467612E+00,  3.69033556E-02, -1.89960416E-05,
                       4.73417677E-09, -4.59705291E-13, -2.32877318E+04,
                       9.58133237E+00])))

species(name='aQOOH[O]',
        atoms='C:4 H:9 O:3',
        thermo=(NASA([10.00, 488.36],
                     [ 3.54559533E+00,  3.89536133E-02,  8.47689703E-05,
                      -2.45147486E-07,  1.76157259E-10, -2.48656640E+04,
                       1.34685910E+01]),
                NASA([488.36, 3000.00],
                     [ 3.94214913E+00,  5.71928314E-02, -3.72516212E-05,
                       1.15209013E-08, -1.35808341E-12, -2.51606249E+04,
                       9.21628964E+00])))

species(name='ipropyl',
        atoms='C:3 H:7',
        thermo=(NASA([10.00, 421.76],
                     [ 3.73943775E+00,  3.10070157E-02, -1.51196908E-04,
                       4.35367329E-07, -3.85565052E-10,  9.49213457E+03,
                       7.79448918E+00]),
                NASA([421.76, 3000.00],
                     [-4.74526725E-01,  3.20862468E-02, -1.67340747E-05,
                       4.21365136E-09, -4.13155573E-13,  1.01934458E+04,
                       2.85865912E+01])))

species(name='aRO2',
        atoms='C:4 H:9 O:3',
        thermo=(NASA([10.00, 670.36],
                     [ 3.45405325E+00,  4.74751311E-02,  9.77507759E-06,
                      -6.31019603E-08,  3.75500067E-11, -3.22535617E+04,
                       1.39284976E+01]),
                NASA([670.36, 3000.00],
                     [ 5.04137652E+00,  5.19952978E-02, -3.16472789E-05,
                       9.22798587E-09, -1.03598915E-12, -3.27807543E+04,
                       4.56056770E+00])))

species(name='O2',
        atoms='O:2',
        thermo=(NASA([10.00, 605.96],
                     [ 3.50743498E+00, -4.43860349E-04,  1.45938058E-06,
                       1.61509333E-09, -2.32050052E-12, -9.24756224E+02,
                       4.72183634E+00]),
                NASA([605.96, 3000.00],
                     [ 2.87462882E+00,  2.17840991E-03, -1.18262921E-06,
                       2.86910493E-10, -2.53297146E-14, -8.19517838E+02,
                       7.69331810E+00])))

species(name='formic_acid',
        atoms='C:1 H:2 O:2',
        thermo=(NASA([10.00, 741.38],
                     [ 4.06855785E+00, -4.74562133E-03,  4.71797900E-05,
                      -6.07490052E-08,  2.51286794E-11, -4.66880837E+04,
                       6.53681035E+00]),
                NASA([741.38, 3000.00],
                     [ 1.13645847E+00,  1.74953124E-02, -1.08112403E-05,
                       3.08075326E-09, -3.34892658E-13, -4.64297918E+04,
                       1.86149484E+01])))

species(name='propene',
        atoms='C:3 H:6',
        thermo=(NASA([10.00, 519.53],
                     [ 3.98723879E+00,  4.72040503E-04,  6.51776229E-05,
                      -9.89891002E-08,  4.91141123E-11,  2.80029567E+02,
                       6.98071210E+00]),
                NASA([519.53, 3000.00],
                     [ 3.79893331E-01,  2.82457690E-02, -1.50108430E-05,
                       3.90894069E-09, -4.00521928E-13,  6.54856915E+02,
                       2.20218922E+01])))

species(name='aQOOHg',
        atoms='C:4 H:9 O:3',
        thermo=(NASA([10.00, 455.48],
                     [ 3.62522127E+00,  2.83222320E-02,  2.08527447E-04,
                      -5.67427418E-07,  4.35169138E-10, -2.56270831E+04,
                       1.26617758E+01]),
                NASA([455.48, 3000.00],
                     [ 5.13914202E+00,  5.96270859E-02, -4.14435328E-05,
                       1.34202375E-08, -1.63474553E-12, -2.62276394E+04,
                       1.46991116E+00])))

species(name='ibut_peroxyacid',
        atoms='C:4 H:8 O:3',
        thermo=(NASA([10.00, 1386.21],
                     [ 3.50995385E+00,  4.78670384E-02, -2.40781384E-05,
                       3.71046938E-09,  3.85442115E-13, -4.92880353E+04,
                       1.22017268E+01]),
                NASA([1386.21, 3000.00],
                     [ 1.24543146E+01,  3.02396862E-02, -1.38577031E-05,
                       3.05328904E-09, -2.63982457E-13, -5.25539186E+04,
                      -3.67061828E+01])))

species(name='HO2',
        atoms='H:1 O:2',
        thermo=(NASA([10.00, 891.11],
                     [ 4.02887004E+00, -1.75769289E-03,  1.08726004E-05,
                      -1.13812972E-08,  3.90113097E-12,  4.95165001E+02,
                       4.69302008E+00]),
                NASA([891.11, 3000.00],
                     [ 3.06571044E+00,  4.28505005E-03, -2.19325920E-06,
                       5.58882699E-10, -5.61246669E-14,  5.98557610E+02,
                       8.84564156E+00])))

species(name='CH3',
        atoms='C:1 H:3',
        thermo=(NASA([10.00, 616.77],
                     [ 3.98929952E+00,  5.45150461E-04,  9.01320092E-06,
                      -1.08320497E-08,  4.38985879E-12,  1.65859883E+04,
                       2.22446886E-01]),
                NASA([616.77, 3000.00],
                     [ 3.35928237E+00,  4.63117126E-03, -9.24365433E-07,
                      -9.02514624E-11,  3.56905106E-14,  1.66637014E+04,
                       2.95743732E+00])))

#-------------------------------------------------------------------------------
# Reaction data
#-------------------------------------------------------------------------------

# Reaction 1
chebyshev_reaction('aQOOH[O] (+ M) <=> aQOOHb (+ M)',
                   Tmin=180.0, Tmax=1500.0,
                   Pmin=(0.01, 'atm'), Pmax=(98.692, 'atm'),
                   coeffs=[[-3.90100e+00,  2.27400e+00, -3.52300e-01,  1.57800e-03, -4.88400e-03,  4.79500e-03, -9.62200e-04, -5.40500e-04],
                           [-1.13800e+00,  2.00000e+00,  3.76100e-01,  1.79800e-02, -2.21200e-03, -1.02500e-02,  6.11700e-04,  1.14000e-03],
                           [-3.14200e+00,  4.73300e-02,  3.57000e-02,  2.09600e-02,  2.31700e-02,  1.95100e-03, -2.60300e-03, -6.74300e-04],
                           [-1.74600e+00, -3.03800e-01, -6.86100e-02, -2.37900e-03,  1.30700e-02,  5.11000e-03, -5.86300e-04, -7.95400e-04],
                           [-8.37200e-01, -2.39200e-01, -6.02300e-02, -7.28200e-03,  3.11800e-03,  3.23700e-03,  7.45700e-04, -2.26700e-04],
                           [-3.42800e-01, -1.22400e-01, -4.67800e-02, -1.08400e-02, -1.25400e-03,  1.50400e-03,  9.79900e-04,  1.90600e-04],
                           [-1.07200e-01, -2.16500e-02, -3.06400e-02, -1.36100e-02, -3.61600e-03,  6.23500e-04,  7.34800e-04,  2.19900e-04],
                           [-8.16000e-03,  3.21900e-02, -7.42100e-03, -1.16000e-02, -4.60100e-03, -5.28500e-05,  4.11200e-04,  1.16200e-04],
                           [ 1.81400e-02,  3.83000e-02,  1.30100e-02, -4.81300e-03, -4.08100e-03, -6.17300e-04,  4.85200e-05,  7.26400e-05],
                           [ 9.57300e-03,  3.72200e-02,  1.92100e-02,  2.15800e-03, -1.69100e-03, -1.19300e-03, -1.48000e-04,  2.11700e-05]])

# Reaction 2
chebyshev_reaction('aQOOHg (+ M) <=> aQOOHb (+ M)',
                   Tmin=180.0, Tmax=1500.0,
                   Pmin=(0.01, 'atm'), Pmax=(98.692, 'atm'),
                   coeffs=[[-5.69000e+00,  1.64500e+00, -3.83000e-01, -3.15700e-02,  1.06100e-02,  2.80400e-03, -3.22400e-04, -3.68900e-04],
                           [ 2.58800e-01,  2.83100e+00,  1.83700e-01, -2.87200e-02, -7.44200e-03, -2.98200e-03,  2.40100e-04,  7.07400e-04],
                           [-3.53500e+00,  2.37400e-01,  2.63300e-01,  3.07800e-02, -1.73200e-03,  1.36700e-03, -1.45700e-03, -6.15100e-04],
                           [-2.35800e+00, -5.20700e-01,  6.32600e-02,  5.14500e-02,  5.40700e-04, -7.80500e-04,  1.20800e-03, -5.34800e-05],
                           [-1.06300e+00, -4.52000e-01, -9.19600e-02,  2.55900e-02,  1.02800e-02, -1.29000e-03, -5.77900e-04,  3.97100e-04],
                           [-3.52900e-01, -1.95900e-01, -1.10300e-01, -1.18700e-02,  7.64600e-03,  2.60700e-03, -6.18300e-04, -3.41600e-04],
                           [-4.45400e-02,  3.77000e-03, -5.72000e-02, -2.59100e-02, -8.44200e-04,  2.56300e-03,  7.15100e-04, -2.05800e-04],
                           [ 3.80000e-02,  8.58200e-02, -1.29400e-03, -1.68600e-02, -5.61200e-03,  2.18800e-04,  8.12300e-04,  2.01500e-04],
                           [ 2.44700e-02,  7.73600e-02,  2.67700e-02, -1.42100e-03, -4.78000e-03, -1.33700e-03,  1.31000e-04,  2.01600e-04],
                           [-3.35900e-03,  2.93900e-02,  2.62200e-02,  7.89500e-03, -8.15200e-04, -1.60800e-03, -3.93500e-04,  3.84200e-05]])

# Reaction 3
chebyshev_reaction('aRO2 (+ M) <=> aQOOHb (+ M)',
                   Tmin=180.0, Tmax=1500.0,
                   Pmin=(0.01, 'atm'), Pmax=(98.692, 'atm'),
                   coeffs=[[-7.28300e+00,  2.10700e+00, -3.80500e-02, -4.33900e-02,  8.77000e-03, -1.21500e-02,  6.99100e-03, -4.32900e-04],
                           [ 3.33700e+00,  2.07200e+00,  3.81100e-01, -9.27100e-02, -3.40400e-02,  1.86700e-02, -4.23100e-03,  1.51900e-03],
                           [-2.73200e+00,  4.99100e-01,  1.02700e-01,  5.03600e-02, -7.15100e-03, -1.62700e-03,  2.42200e-03, -1.83200e-03],
                           [-1.72900e+00, -3.34800e-01, -8.82100e-02,  5.50200e-02,  2.13200e-02, -1.50100e-03, -1.42400e-03, -7.42600e-04],
                           [-9.25000e-01, -3.90300e-01, -1.30700e-01,  1.10400e-02,  1.88400e-02,  1.85900e-03, -1.77500e-03,  1.38500e-05],
                           [-3.51700e-01, -1.87900e-01, -8.51700e-02, -1.30000e-02,  1.89100e-03,  2.42700e-03, -6.50700e-04,  3.11500e-04],
                           [-9.95900e-02, -9.68100e-03, -3.86400e-02, -1.74800e-02, -3.03400e-03, -9.52100e-04,  4.22900e-04,  5.49200e-04],
                           [ 7.51400e-03,  4.83400e-02, -4.38100e-03, -9.32300e-03, -5.04400e-03, -9.81700e-04,  4.95100e-04,  2.19900e-04],
                           [ 2.51100e-02,  4.74800e-02,  1.49000e-02, -3.02300e-04, -4.30700e-03, -6.56500e-04,  4.15400e-04, -9.96400e-05],
                           [ 1.12800e-02,  3.45700e-02,  1.89700e-02,  4.61900e-03, -1.27800e-03, -8.19100e-04, -5.99900e-05,  2.37700e-05]])

# Reaction 4
chebyshev_reaction('aadduct (+ M) <=> aQOOHb (+ M)',
                   Tmin=180.0, Tmax=1500.0,
                   Pmin=(0.01, 'atm'), Pmax=(98.692, 'atm'),
                   coeffs=[[-8.10200e+00,  6.78100e-01, -3.76600e-02, -2.16700e-02, -9.74100e-03, -1.25900e-03,  2.55200e-03,  2.72300e-04],
                           [ 2.24400e+00,  2.58700e+00,  3.92700e-01, -8.18400e-02, -2.14300e-02,  5.88200e-03,  1.71700e-03,  1.35900e-04],
                           [-3.11300e+00,  4.68400e-01,  1.24000e-01,  2.89800e-02,  3.93500e-03, -1.92600e-03,  5.69600e-06, -1.33100e-04],
                           [-1.93900e+00, -3.38100e-01, -7.92600e-02,  3.57000e-02,  2.41700e-02, -1.78300e-05, -2.49000e-03, -4.74300e-04],
                           [-9.80600e-01, -3.39600e-01, -1.27100e-01,  7.73100e-03,  1.89200e-02,  1.68300e-03, -1.54100e-03, -2.61100e-04],
                           [-3.72200e-01, -1.54600e-01, -9.14900e-02, -1.21500e-02,  4.80000e-03,  6.44400e-04, -6.18900e-05,  2.93300e-04],
                           [-9.58300e-02,  4.09000e-03, -4.56000e-02, -1.56000e-02, -3.19100e-03, -1.01300e-03,  5.63100e-04,  4.77500e-04],
                           [ 9.81500e-03,  5.98600e-02, -4.58900e-03, -9.67800e-03, -5.03100e-03, -1.17100e-03,  5.40600e-04,  2.60900e-04],
                           [ 2.44600e-02,  5.52600e-02,  1.68900e-02, -1.47000e-03, -3.47000e-03, -9.36200e-04,  3.02400e-04,  5.84600e-05],
                           [ 9.14000e-03,  3.38700e-02,  1.85400e-02,  4.87200e-03, -1.11900e-03, -8.67900e-04,  3.01600e-06, -2.17900e-05]])

# Reaction 5
chebyshev_reaction('O2 + aR (+ M) <=> aQOOHb (+ M)',
                   Tmin=180.0, Tmax=1500.0,
                   Pmin=(0.01, 'atm'), Pmax=(98.692, 'atm'),
                   coeffs=[[ 3.63000e+00,  3.18900e+00, -8.52700e-01, -1.96100e-02,  4.77200e-02, -2.06100e-02, -6.02300e-04,  4.74200e-03],
                           [-2.03900e+00,  8.02900e-01,  9.08100e-01, -1.94800e-01, -5.08000e-02,  3.95000e-02, -3.38700e-03, -6.59700e-03],
                           [-1.41300e+00, -6.43400e-02,  3.55300e-01,  8.01100e-02, -5.63600e-02, -5.89500e-03,  1.04200e-02, -2.02000e-04],
                           [-9.65600e-01, -3.37500e-01,  7.91300e-02,  8.64400e-02, -5.13000e-03, -1.43700e-02,  1.23100e-03,  2.44800e-03],
                           [-5.32000e-01, -2.86400e-01, -3.90600e-02,  4.28900e-02,  1.37000e-02, -5.64100e-03, -2.55800e-03,  7.42100e-04],
                           [-2.27300e-01, -1.62400e-01, -6.60300e-02,  6.50100e-03,  1.18800e-02,  8.00000e-04, -1.41400e-03, -2.32100e-04],
                           [-6.15100e-02, -4.92000e-02, -5.07000e-02, -1.06100e-02,  4.21600e-03,  2.34600e-03, -3.73600e-05, -1.34000e-04],
                           [ 9.94200e-03,  1.69900e-02, -2.09100e-02, -1.30800e-02, -1.36300e-03,  1.23900e-03,  4.84200e-04,  8.01000e-05],
                           [ 2.36900e-02,  4.11000e-02,  3.21800e-03, -6.84400e-03, -3.38700e-03, -2.02300e-04,  2.91700e-04,  1.36000e-04],
                           [ 1.30500e-02,  3.39300e-02,  1.42400e-02,  8.28600e-04, -2.35600e-03, -1.02900e-03, -9.23600e-05,  7.13000e-05]])
#  aQOOHb(+M) <=> aQOOH[O](+M)                         1.000e+00 0.000     0.000
#      TCHEB/ 180.000   1500.000 /
#      PCHEB/ 0.010     98.692   /
#      CHEB/ 10 8/
#      CHEB/ -1.147e+01   2.274e+00    -3.523e-01   1.578e-03    -4.884e-03  /
#      CHEB/ 4.795e-03    -9.622e-04   -5.405e-04   3.458e+00    2.000e+00   /
#      CHEB/ 3.761e-01    1.798e-02    -2.212e-03   -1.025e-02   6.117e-04   /
#      CHEB/ 1.140e-03    -3.064e+00   4.733e-02    3.570e-02    2.096e-02   /
#      CHEB/ 2.317e-02    1.951e-03    -2.603e-03   -6.743e-04   -1.700e+00  /
#      CHEB/ -3.038e-01   -6.861e-02   -2.379e-03   1.307e-02    5.110e-03   /
#      CHEB/ -5.863e-04   -7.954e-04   -8.218e-01   -2.392e-01   -6.023e-02  /
#      CHEB/ -7.282e-03   3.118e-03    3.237e-03    7.457e-04    -2.267e-04  /
#      CHEB/ -3.381e-01   -1.224e-01   -4.678e-02   -1.084e-02   -1.254e-03  /
#      CHEB/ 1.504e-03    9.799e-04    1.906e-04    -1.054e-01   -2.165e-02  /
#      CHEB/ -3.064e-02   -1.361e-02   -3.616e-03   6.235e-04    7.348e-04   /
#      CHEB/ 2.199e-04    -7.444e-03   3.219e-02    -7.421e-03   -1.160e-02  /
#      CHEB/ -4.601e-03   -5.285e-05   4.112e-04    1.162e-04    1.834e-02   /
#      CHEB/ 3.830e-02    1.301e-02    -4.813e-03   -4.081e-03   -6.173e-04  /
#      CHEB/ 4.852e-05    7.264e-05    9.580e-03    3.722e-02    1.921e-02   /
#      CHEB/ 2.158e-03    -1.691e-03   -1.193e-03   -1.480e-04   2.117e-05   /

# Reaction 6
chebyshev_reaction('aQOOHg (+ M) <=> aQOOH[O] (+ M)',
                   Tmin=180.0, Tmax=1500.0,
                   Pmin=(0.01, 'atm'), Pmax=(98.692, 'atm'),
                   coeffs=[[-2.85400e+00,  1.26200e+00,  6.87700e-02, -1.40500e-02, -8.33100e-03, -1.43800e-03,  1.29100e-03,  5.38700e-04],
                           [-2.62000e+00,  1.50400e+00,  1.47800e-01, -1.51900e-02, -3.07900e-03, -2.12100e-03,  7.71400e-04,  3.76400e-04],
                           [-3.72500e+00,  3.26500e-01, -4.61900e-02,  1.22700e-02,  2.11300e-02,  6.29000e-04, -2.09800e-03, -7.56100e-04],
                           [-2.02300e+00, -1.64300e-01, -1.63500e-01,  7.28000e-03,  2.31600e-02,  1.41400e-03, -1.79100e-03, -6.18600e-04],
                           [-9.21700e-01, -1.49200e-01, -1.37400e-01, -1.51300e-03,  7.02600e-03, -1.26300e-03,  3.25800e-04,  3.56000e-04],
                           [-3.08700e-01, -6.16500e-03, -6.20600e-02, -4.24700e-03, -6.25200e-03, -2.62100e-03,  1.75600e-03,  6.30900e-04],
                           [-5.67200e-02,  7.44800e-02, -4.62000e-03, -3.31500e-03, -1.00400e-02, -1.36300e-03,  1.81100e-03,  9.53800e-05],
                           [ 1.04800e-03,  7.23700e-02,  2.27600e-02,  8.79600e-04, -7.36800e-03,  1.30800e-04,  8.20400e-04, -4.62200e-04],
                           [-1.51600e-02,  3.09600e-02,  2.55500e-02,  5.90700e-03, -2.36900e-03,  7.08200e-04, -3.58900e-04, -5.90100e-04],
                           [-1.27800e-02, -1.00200e-02,  1.40900e-02,  6.93500e-03,  1.45800e-03,  9.20000e-04, -8.77800e-04, -3.63500e-04]])

# Reaction 7
chebyshev_reaction('aRO2 (+ M) <=> aQOOH[O] (+ M)',
                   Tmin=180.0, Tmax=1500.0,
                   Pmin=(0.01, 'atm'), Pmax=(98.692, 'atm'),
                   coeffs=[[-8.08100e+00,  5.13000e+00, -1.15900e+00, -9.61400e-02,  1.87800e-01, -5.28700e-02, -1.11000e-02,  1.56900e-02],
                           [ 6.21000e+00, -6.62900e-01,  8.91400e-01, -9.40800e-03, -1.67600e-01,  7.16700e-02,  2.86500e-04, -1.55300e-02],
                           [-3.31200e+00, -3.15100e-01,  4.29700e-02,  5.77000e-02, -1.42800e-03, -1.36700e-02,  8.48600e-03, -1.56400e-03],
                           [-1.65000e+00, -2.92200e-01, -6.34600e-02,  1.35400e-02,  3.40600e-03, -2.52700e-03,  9.55100e-04,  7.58900e-04],
                           [-7.31000e-01, -1.36600e-01, -3.14900e-02, -1.55300e-02,  8.01100e-04,  1.59200e-03, -1.16700e-03,  7.09800e-04],
                           [-2.94700e-01, -2.15400e-02, -4.20100e-03, -1.15600e-02, -2.87300e-03,  1.20700e-03, -1.98600e-04, -9.77000e-05],
                           [-1.24500e-01,  4.21400e-02,  6.05400e-03, -6.15900e-03, -1.30000e-03, -3.28800e-04,  2.60400e-05,  7.60500e-05],
                           [-5.04000e-02,  4.02600e-02,  8.59200e-03,  5.43200e-04, -6.77700e-04, -8.64000e-04,  7.39900e-05,  3.04400e-05],
                           [-1.58400e-02,  1.52400e-02,  4.52500e-03,  5.56300e-03,  1.04400e-04, -1.09500e-03,  1.77500e-04,  4.15500e-05],
                           [-7.76600e-03, -6.12000e-03,  9.64900e-03,  9.29400e-04,  1.72500e-04,  8.25600e-04, -3.04100e-04, -1.41100e-04]])

# Reaction 8
chebyshev_reaction('aadduct (+ M) <=> aQOOH[O] (+ M)',
                   Tmin=180.0, Tmax=1500.0,
                   Pmin=(0.01, 'atm'), Pmax=(98.692, 'atm'),
                   coeffs=[[-8.66600e+00,  3.85100e+00, -1.18200e+00, -5.50100e-03,  1.39500e-01, -4.53000e-02, -3.08700e-03,  7.35100e-03],
                           [ 4.75800e+00, -3.29500e-01,  8.72000e-01, -4.87800e-02, -1.26500e-01,  5.94400e-02, -4.82200e-03, -6.73100e-03],
                           [-3.63500e+00, -2.18300e-01,  5.17400e-02,  4.08600e-02,  4.65100e-03, -1.21200e-02,  5.84000e-03, -1.05700e-03],
                           [-1.84300e+00, -2.53300e-01, -6.47200e-02,  9.45600e-03,  3.34100e-03, -1.24700e-03,  4.21300e-04,  3.52500e-04],
                           [-8.14500e-01, -1.06400e-01, -4.38800e-02, -1.28800e-02,  5.26400e-04,  7.11400e-04, -2.33000e-04,  3.39700e-04],
                           [-3.14600e-01,  7.38000e-03, -1.42700e-02, -9.58600e-03, -2.67900e-03,  4.39900e-04,  1.95200e-04, -6.92500e-05],
                           [-1.18900e-01,  6.29100e-02,  3.38900e-03, -5.45600e-03, -1.47200e-03, -3.29400e-04, -6.92600e-06,  9.48200e-05],
                           [-4.39400e-02,  4.88000e-02,  1.10200e-02,  3.15300e-04, -9.48800e-04, -4.31800e-04, -1.48700e-04,  2.68900e-05],
                           [-1.29100e-02,  1.45800e-02,  6.77300e-03,  5.33900e-03, -1.06700e-04, -8.44300e-04,  1.05400e-04,  6.85700e-06],
                           [-8.09100e-03, -8.99500e-03,  9.87400e-03,  7.55700e-04,  2.74000e-04,  8.16900e-04, -2.88600e-04, -1.27500e-04]])

# Reaction 9
chebyshev_reaction('O2 + aR (+ M) <=> aQOOH[O] (+ M)',
                   Tmin=180.0, Tmax=1500.0,
                   Pmin=(0.01, 'atm'), Pmax=(98.692, 'atm'),
                   coeffs=[[ 9.04500e-01,  5.43700e+00,  3.71500e-01, -3.63400e-01, -2.57400e-01,  9.92600e-02,  1.01300e-01, -4.34400e-02],
                           [-1.52300e+00, -2.56700e+00,  1.28300e-01,  4.76600e-01,  2.70100e-01, -1.72800e-01, -1.30100e-01,  7.91100e-02],
                           [-1.24800e+00, -6.48300e-01, -1.33900e-01,  9.73700e-02,  4.35100e-03,  4.55000e-02,  1.40400e-02, -3.87500e-02],
                           [-8.40700e-01,  1.56600e-02, -1.79500e-01, -7.39400e-02,  3.96600e-02,  3.57400e-02, -2.96500e-03, -1.02400e-02],
                           [-3.29200e-01, -5.12700e-02, -2.96600e-02, -4.65800e-02, -3.93300e-03,  1.04400e-03,  1.20500e-02,  7.95600e-03],
                           [-1.32600e-01, -3.22900e-03, -4.72800e-03, -1.12200e-02, -2.20900e-02,  4.07400e-03,  6.50300e-03,  9.90500e-05],
                           [-7.58700e-02,  5.09800e-02, -1.39900e-02, -2.89100e-03, -4.30500e-03, -4.61000e-03, -2.19700e-04,  3.00900e-03],
                           [-1.36200e-02,  4.36400e-03,  1.09300e-02, -6.33200e-03,  9.60600e-04, -3.96900e-03, -8.80700e-04,  1.73300e-03],
                           [-1.26500e-02,  1.77500e-03,  7.58800e-03,  1.53900e-03, -3.92600e-03,  4.73800e-04, -6.48100e-04, -8.15500e-04],
                           [-6.91800e-03,  1.32400e-02, -2.33500e-03,  3.88900e-03,  1.15100e-04, -5.07900e-04, -7.69000e-04, -4.12000e-04]])
#  aQOOHb(+M) <=> aQOOHg(+M)                           1.000e+00 0.000     0.000
#      TCHEB/ 180.000   1500.000 /
#      PCHEB/ 0.010     98.692   /
#      CHEB/ 10 8/
#      CHEB/ -1.243e+01   1.645e+00    -3.830e-01   -3.157e-02   1.061e-02   /
#      CHEB/ 2.804e-03    -3.224e-04   -3.689e-04   4.351e+00    2.831e+00   /
#      CHEB/ 1.837e-01    -2.872e-02   -7.442e-03   -2.982e-03   2.401e-04   /
#      CHEB/ 7.074e-04    -3.312e+00   2.374e-01    2.633e-01    3.078e-02   /
#      CHEB/ -1.732e-03   1.367e-03    -1.457e-03   -6.151e-04   -2.264e+00  /
#      CHEB/ -5.207e-01   6.326e-02    5.145e-02    5.407e-04    -7.805e-04  /
#      CHEB/ 1.208e-03    -5.348e-05   -1.035e+00   -4.520e-01   -9.196e-02  /
#      CHEB/ 2.559e-02    1.028e-02    -1.290e-03   -5.779e-04   3.971e-04   /
#      CHEB/ -3.450e-01   -1.959e-01   -1.103e-01   -1.187e-02   7.646e-03   /
#      CHEB/ 2.607e-03    -6.183e-04   -3.416e-04   -4.203e-02   3.770e-03   /
#      CHEB/ -5.720e-02   -2.591e-02   -8.442e-04   2.563e-03    7.151e-04   /
#      CHEB/ -2.058e-04   3.873e-02    8.582e-02    -1.294e-03   -1.686e-02  /
#      CHEB/ -5.612e-03   2.188e-04    8.123e-04    2.015e-04    2.449e-02   /
#      CHEB/ 7.736e-02    2.677e-02    -1.421e-03   -4.780e-03   -1.337e-03  /
#      CHEB/ 1.310e-04    2.016e-04    -3.501e-03   2.939e-02    2.622e-02   /
#      CHEB/ 7.895e-03    -8.152e-04   -1.608e-03   -3.935e-04   3.842e-05   /
#  aQOOH[O](+M) <=> aQOOHg(+M)                         1.000e+00 0.000     0.000
#      TCHEB/ 180.000   1500.000 /
#      PCHEB/ 0.010     98.692   /
#      CHEB/ 10 8/
#      CHEB/ -2.021e+00   1.262e+00    6.877e-02    -1.405e-02   -8.331e-03  /
#      CHEB/ -1.438e-03   1.291e-03    5.387e-04    -3.124e+00   1.504e+00   /
#      CHEB/ 1.478e-01    -1.519e-02   -3.079e-03   -2.121e-03   7.714e-04   /
#      CHEB/ 3.764e-04    -3.580e+00   3.265e-01    -4.619e-02   1.227e-02   /
#      CHEB/ 2.113e-02    6.290e-04    -2.098e-03   -7.561e-04   -1.975e+00  /
#      CHEB/ -1.643e-01   -1.635e-01   7.280e-03    2.316e-02    1.414e-03   /
#      CHEB/ -1.791e-03   -6.186e-04   -9.089e-01   -1.492e-01   -1.374e-01  /
#      CHEB/ -1.513e-03   7.026e-03    -1.263e-03   3.258e-04    3.560e-04   /