units(length='cm', time='s', quantity='mol', act_energy='kcal/mol')

ideal_gas(name='gas',
          elements="H D T C Ci O Oi N Ne Ar He Si S F Cl Br I X",
          species="""propene3ol       OH               disub_c4ether
                     H2O              disub_epoxy      gQOOHa
                     propene1ol       gQOOHb           ipropylOOH
                     galdoxy          galkene          CH2O
                     O2               gRO2             gQOOHg
                     gR               galdol           monosub_c4ether
                     HO2              gQOOH[O]""",
          reactions='all',
          initial_state=state(temperature=300.0, pressure=OneAtm))

#-------------------------------------------------------------------------------
# Element data
#-------------------------------------------------------------------------------

element(symbol='Ci', atomic_mass=13.003)
element(symbol='D', atomic_mass=2.014)
element(symbol='Oi', atomic_mass=18.0)
element(symbol='T', atomic_mass=3.016)
element(symbol='X', atomic_mass=195.083)
#-------------------------------------------------------------------------------
# Species data
#-------------------------------------------------------------------------------

species(name='propene3ol',
        atoms='C:3 H:6 O:1',
        thermo=(NASA([10.00, 444.81],
                     [ 3.92769709E+00,  4.89977303E-03,  1.13094874E-04,
                      -2.59008187E-07,  1.86205760E-10, -1.76786050E+04,
                       9.90805416E+00]),
                NASA([444.81, 3000.00],
                     [ 2.61720343E+00,  3.01777872E-02, -1.76511625E-05,
                       5.14864061E-09, -5.91153761E-13, -1.76955055E+04,
                       1.36683107E+01])))

species(name='OH',
        atoms='H:1 O:1',
        thermo=(NASA([10.00, 984.14],
                     [ 3.49686242E+00,  1.83973160E-04, -9.97634499E-07,
                       1.56942783E-09, -6.10128175E-13,  3.41673934E+03,
                       1.48093120E+00]),
                NASA([984.14, 3000.00],
                     [ 3.45221464E+00, -2.95124034E-04,  7.39418622E-07,
                      -2.89309866E-10,  3.53041498E-14,  3.45751599E+03,
                       1.85813897E+00])))

species(name='disub_c4ether',
        atoms='C:4 H:8 O:2',
        thermo=(NASA([10.00, 413.50],
                     [ 3.78241323E+00,  1.89501763E-02,  8.65302396E-05,
                      -1.80580575E-07,  1.13656264E-10, -3.96525242E+04,
                       1.09982450E+01]),
                NASA([413.50, 3000.00],
                     [ 4.29420885E-01,  5.13851903E-02, -3.11292293E-05,
                       9.11498284E-09, -1.03192718E-12, -3.93752299E+04,
                       2.42134976E+01])))

species(name='H2O',
        atoms='H:2 O:1',
        thermo=(NASA([10.00, 773.84],
                     [ 4.00473541E+00, -2.39729134E-04,  8.11862955E-07,
                       1.47891862E-09, -1.19783539E-12, -3.03533807E+04,
                      -9.96254147E-02]),
                NASA([773.84, 3000.00],
                     [ 3.52133374E+00,  1.05377009E-03,  6.40722099E-07,
                      -3.86240235E-10,  5.49243294E-14, -3.02424794E+04,
                       2.34173094E+00])))

species(name='disub_epoxy',
        atoms='C:4 H:8 O:2',
        thermo=(NASA([10.00, 549.41],
                     [ 3.89863211E+00,  5.97532637E-03,  1.66685676E-04,
                      -3.10743768E-07,  1.78330192E-10, -3.63253015E+04,
                       1.13847308E+01]),
                NASA([549.41, 3000.00],
                     [-6.40277648E-01,  6.05960003E-02, -4.13427220E-05,
                       1.31555461E-08, -1.57685017E-12, -3.61521847E+04,
                       2.76005436E+01])))

species(name='gQOOHa',
        atoms='C:4 H:9 O:3',
        thermo=(NASA([10.00, 160.74],
                     [ 3.80808147E+00,  2.31043884E-02,  5.26945984E-04,
                      -3.11500696E-06,  6.03881958E-09, -2.42488870E+04,
                       1.17645316E+01]),
                NASA([160.74, 3000.00],
                     [ 2.90630300E+00,  6.50241173E-02, -4.60073244E-05,
                       1.51330930E-08, -1.87074267E-12, -2.42450624E+04,
                       1.36838819E+01])))

species(name='propene1ol',
        atoms='C:3 H:6 O:1',
        thermo=(NASA([10.00, 459.42],
                     [ 3.91245344E+00,  5.85800161E-03,  1.15412006E-04,
                      -2.68014417E-07,  1.91800131E-10, -2.03096715E+04,
                       8.14807684E+00]),
                NASA([459.42, 3000.00],
                     [ 3.14049093E+00,  2.95550898E-02, -1.73843684E-05,
                       5.11506211E-09, -5.92966137E-13, -2.04178940E+04,
                       9.32215170E+00])))

species(name='gQOOHb',
        atoms='C:4 H:9 O:3',
        thermo=(NASA([10.00, 1018.67],
                     [ 3.99028351E+00,  4.29665712E-02,  2.28338778E-05,
                      -5.67914439E-08,  2.29383258E-11, -2.43305194E+04,
                       1.20326731E+01]),
                NASA([1018.67, 3000.00],
                     [ 1.38304153E+01,  3.88527019E-02, -2.19473905E-05,
                       5.78719895E-09, -5.85097740E-13, -2.81266042E+04,
                      -4.44147388E+01])))

species(name='ipropylOOH',
        atoms='C:3 H:7 O:2',
        thermo=(NASA([10.00, 405.01],
                     [ 3.30075623E+00,  7.58672756E-02, -3.35754269E-04,
                       8.05972164E-07, -6.68864582E-10, -5.30992266E+02,
                       1.43372849E+01]),
                NASA([405.01, 3000.00],
                     [ 2.51742509E+00,  3.72760950E-02, -2.12450220E-05,
                       5.83593926E-09, -6.22110649E-13, -8.75846599E+01,
                       2.20991392E+01])))

species(name='galdoxy',
        atoms='C:4 H:7 O:2',
        thermo=(NASA([10.00, 209.62],
                     [ 3.82641108E+00,  1.84758886E-02,  3.43073800E-04,
                      -1.82817005E-06,  2.98516720E-09, -1.79214290E+04,
                       1.17972706E+01]),
                NASA([209.62, 3000.00],
                     [ 4.22049016E+00,  4.03370149E-02, -2.36129482E-05,
                       6.72979114E-09, -7.47862493E-13, -1.80024987E+04,
                       8.97211724E+00])))

species(name='galkene',
        atoms='C:4 H:8 O:1',
        thermo=(NASA([10.00, 383.47],
                     [ 3.84035604E+00,  1.20378740E-02,  1.87486319E-04,
                      -5.44759148E-07,  4.80711015E-10, -1.97459368E+04,
                       1.02570291E+01]),
                NASA([383.47, 3000.00],
                     [ 4.00413385E+00,  3.79025144E-02, -2.15435710E-05,
                       6.15213311E-09, -6.97446345E-13, -1.99612261E+04,
                       6.98052628E+00])))

species(name='CH2O',
        atoms='C:1 H:2 O:1',
        thermo=(NASA([10.00, 601.31],
                     [ 4.03190845E+00, -1.93233367E-03,  8.89743345E-06,
                       2.98105926E-09, -7.90813886E-12, -1.42276270E+04,
                       3.47574660E+00]),
                NASA([601.31, 3000.00],
                     [ 1.40134195E+00,  9.48858016E-03, -4.43088317E-06,
                       9.48452194E-10, -7.43790219E-14, -1.38013869E+04,
                       1.57423780E+01])))

species(name='O2',
        atoms='O:2',
        thermo=(NASA([10.00, 605.96],
                     [ 3.50743498E+00, -4.43860349E-04,  1.45938058E-06,
                       1.61509333E-09, -2.32050052E-12, -9.24756224E+02,
                       4.72183634E+00]),
                NASA([605.96, 3000.00],
                     [ 2.87462882E+00,  2.17840991E-03, -1.18262921E-06,
                       2.86910493E-10, -2.53297146E-14, -8.19517838E+02,
                       7.69331810E+00])))

species(name='gRO2',
        atoms='C:4 H:9 O:3',
        thermo=(NASA([10.00, 177.33],
                     [ 3.70632176E+00,  3.49733664E-02,  4.64036392E-04,
                      -3.18637835E-06,  6.38178607E-09, -2.84753010E+04,
                       1.24459269E+01]),
                NASA([177.33, 3000.00],
                     [ 4.82062697E+00,  5.17179689E-02, -3.18386818E-05,
                       9.52247045E-09, -1.10180288E-12, -2.85806716E+04,
                       7.14082953E+00])))

species(name='gQOOHg',
        atoms='C:4 H:9 O:3',
        thermo=(NASA([10.00, 475.03],
                     [ 3.42273720E+00,  4.98344215E-02,  6.47820920E-05,
                      -2.49842966E-07,  1.98636537E-10, -2.23485866E+04,
                       1.41578583E+01]),
                NASA([475.03, 3000.00],
                     [ 5.94049074E+00,  5.53778585E-02, -3.71708255E-05,
                       1.17540477E-08, -1.40812095E-12, -2.28895409E+04,
                       7.09201218E-01])))

species(name='gR',
        atoms='C:4 H:9 O:1',
        thermo=(NASA([10.00, 638.24],
                     [ 3.37074633E+00,  5.17529751E-02, -6.54872940E-05,
                       6.88084237E-08, -3.21569794E-11, -1.23550987E+04,
                       1.14339669E+01]),
                NASA([638.24, 3000.00],
                     [ 3.99410860E+00,  4.06314915E-02, -2.23932510E-05,
                       6.08356263E-09, -6.49884708E-13, -1.22877240E+04,
                       9.85769960E+00])))

species(name='galdol',
        atoms='C:4 H:8 O:2',
        thermo=(NASA([10.00, 506.68],
                     [ 3.85380874E+00,  9.21272695E-03,  1.86712348E-04,
                      -3.96417049E-07,  2.55528268E-10, -4.74127714E+04,
                       1.24312743E+01]),
                NASA([506.68, 3000.00],
                     [ 1.49710213E+00,  5.65979142E-02, -3.87709084E-05,
                       1.23682052E-08, -1.48287964E-12, -4.75433808E+04,
                       1.85531759E+01])))

species(name='monosub_c4ether',
        atoms='C:4 H:8 O:2',
        thermo=(NASA([10.00, 380.36],
                     [ 3.47743996E+00,  6.08051311E-02, -2.78518945E-04,
                       8.23182713E-07, -7.87158031E-10, -3.21545438E+04,
                       1.06415154E+01]),
                NASA([380.36, 3000.00],
                     [-1.09346901E+00,  5.35985968E-02, -3.21081420E-05,
                       9.20818293E-09, -1.01830294E-12, -3.14069837E+04,
                       3.35312368E+01])))

species(name='HO2',
        atoms='H:1 O:2',
        thermo=(NASA([10.00, 891.11],
                     [ 4.02887004E+00, -1.75769289E-03,  1.08726004E-05,
                      -1.13812972E-08,  3.90113097E-12,  4.95165001E+02,
                       4.69302008E+00]),
                NASA([891.11, 3000.00],
                     [ 3.06571044E+00,  4.28505005E-03, -2.19325920E-06,
                       5.58882699E-10, -5.61246669E-14,  5.98557610E+02,
                       8.84564156E+00])))

species(name='gQOOH[O]',
        atoms='C:4 H:9 O:3',
        thermo=(NASA([10.00, 535.23],
                     [ 3.83107445E+00,  1.02302002E-02,  2.29377261E-04,
                      -4.59095575E-07,  2.77765018E-10, -1.95476763E+04,
                       1.41034859E+01]),
                NASA([535.23, 3000.00],
                     [-4.19283096E-01,  7.69784620E-02, -5.57279000E-05,
                       1.81378295E-08, -2.18295635E-12, -1.95937897E+04,
                       2.72711816E+01])))

#-------------------------------------------------------------------------------
# Reaction data
#-------------------------------------------------------------------------------

# Reaction 1
chebyshev_reaction('gQOOH[O] (+ M) <=> gRO2 (+ M)',
                   Tmin=180.0, Tmax=1500.0,
                   Pmin=(0.01, 'atm'), Pmax=(98.692, 'atm'),
                   coeffs=[[ 4.52700e+00,  1.34000e+00, -1.62100e-01,  4.02600e-03,  4.31000e-03,  2.36500e-04, -1.24000e-04,  3.15800e-05],
                           [-5.52500e+00,  1.01900e+00,  6.57100e-02, -2.17900e-02, -4.24400e-03,  3.50000e-03,  5.92400e-04, -3.95600e-04],
                           [-3.99400e+00, -9.26500e-02,  4.89600e-03,  2.83300e-02,  1.05100e-03, -1.40000e-03,  7.57400e-05,  1.29400e-04],
                           [-2.19900e+00, -1.97100e-01, -8.39500e-02,  1.08300e-03,  9.51300e-03,  1.88200e-03, -8.89600e-04, -3.35600e-04],
                           [-1.09600e+00, -3.74000e-02, -3.82300e-02, -1.73700e-02,  2.24600e-04,  2.35700e-03,  3.72500e-04, -3.00000e-04],
                           [-5.36000e-01, -2.48000e-02,  1.73700e-02,  1.93100e-04, -2.75800e-03, -1.22400e-03,  3.59300e-05,  1.92200e-04],
                           [-2.36500e-01, -7.22100e-02,  7.67200e-03,  1.00400e-02,  3.09400e-03, -8.84000e-04, -9.16900e-04, -7.54100e-05],
                           [-6.05600e-02, -6.26800e-02, -1.93100e-02, -3.10700e-04,  3.46300e-03,  1.56300e-03, -2.32100e-04, -3.23100e-04],
                           [ 3.45500e-02, -9.44600e-03, -2.15500e-02, -7.57000e-03, -1.46600e-03,  8.43400e-04,  6.50800e-04,  6.28500e-05],
                           [ 6.21400e-02,  2.59400e-02, -4.00700e-03, -4.12200e-03, -3.19400e-03, -8.52200e-04,  1.93700e-04,  2.29300e-04]])

# Reaction 2
chebyshev_reaction('gQOOHa (+ M) <=> gRO2 (+ M)',
                   Tmin=180.0, Tmax=1500.0,
                   Pmin=(0.01, 'atm'), Pmax=(98.692, 'atm'),
                   coeffs=[[ 4.08700e+00,  1.93600e+00, -6.36100e-02, -1.76900e-02, -3.17700e-03,  1.27200e-04,  3.01800e-04,  1.70500e-04],
                           [-6.99700e+00,  2.39600e-01,  6.74400e-02,  2.63500e-02,  6.21900e-03,  1.86500e-03,  1.64900e-04, -4.21200e-04],
                           [-3.60000e+00, -5.52700e-02, -5.74100e-02, -1.41200e-02, -7.48400e-04,  1.57300e-03,  8.00000e-04,  2.03800e-04],
                           [-1.80500e+00, -1.33900e-02, -1.06700e-02, -3.52900e-03, -8.36800e-04,  9.63200e-05,  1.20300e-06, -6.72500e-05],
                           [-1.06700e+00, -3.68400e-02, -1.88900e-04,  5.46100e-04,  1.47800e-03,  1.21600e-03,  3.57200e-04, -4.32800e-05],
                           [-4.95400e-01, -9.14200e-02, -2.01700e-02, -6.37100e-03, -7.69100e-04,  5.34000e-04,  3.48100e-04,  1.42500e-04],
                           [-1.96600e-01, -6.84000e-02, -1.57400e-02, -5.05800e-03, -1.31500e-03,  9.15900e-06,  7.27700e-05,  2.69400e-05],
                           [-7.90100e-02, -2.58800e-02, -8.89300e-03, -2.13600e-03, -7.02800e-04,  1.50400e-04,  1.56800e-04,  3.09900e-05],
                           [ 5.25000e-02, -1.27700e-02, -1.58900e-02, -3.59500e-03, -7.03000e-04,  4.08100e-05,  1.37100e-04,  7.29200e-05],
                           [ 4.89500e-02,  2.92600e-02, -4.81400e-03, -2.53100e-03, -1.29800e-03, -4.39200e-04,  4.08200e-07,  4.03700e-05]])

# Reaction 3
chebyshev_reaction('gQOOHg (+ M) <=> gRO2 (+ M)',
                   Tmin=180.0, Tmax=1500.0,
                   Pmin=(0.01, 'atm'), Pmax=(98.692, 'atm'),
                   coeffs=[[ 1.08400e+00,  5.95500e-01, -2.81400e-02,  1.41600e-02, -2.00500e-03,  9.91400e-05,  6.71500e-05, -1.51200e-05],
                           [ 2.24800e+00,  9.94000e-01, -1.67400e-02,  1.93300e-02, -1.79900e-03, -2.06800e-04,  1.47400e-04, -3.34700e-05],
                           [-2.81500e+00,  5.36000e-01,  5.50200e-02,  6.15600e-03,  9.92200e-04, -4.96600e-04,  3.04000e-05, -1.57900e-05],
                           [-2.09100e+00,  7.60200e-02,  8.58700e-02,  4.65000e-03,  1.23700e-03, -2.54300e-04, -1.53600e-04, -8.49300e-06],
                           [-1.29500e+00, -2.06300e-01,  5.55100e-02,  1.12200e-02,  8.90900e-04, -6.65600e-05, -2.18600e-04, -2.26100e-05],
                           [-6.38600e-01, -2.82900e-01, -2.35400e-03,  1.28500e-02,  2.09400e-03, -6.28700e-05, -1.87600e-04, -2.25400e-05],
                           [-2.52500e-01, -2.21900e-01, -4.63700e-02,  4.91300e-03,  3.55600e-03,  2.70600e-04, -1.45900e-04, -3.83300e-06],
                           [-2.09800e-02, -1.10000e-01, -5.82700e-02, -6.72300e-03,  3.02900e-03,  9.78500e-04, -1.87100e-05, -2.17500e-06],
                           [ 7.07600e-02, -8.88600e-03, -4.33200e-02, -1.40400e-02,  3.57200e-04,  1.42200e-03,  2.58400e-04, -1.73000e-05],
                           [ 8.14700e-02,  5.25000e-02, -1.68000e-02, -1.35800e-02, -2.59900e-03,  1.06600e-03,  5.39500e-04, -7.61700e-06]])

# Reaction 4
chebyshev_reaction('gQOOHb (+ M) <=> gRO2 (+ M)',
                   Tmin=180.0, Tmax=1500.0,
                   Pmin=(0.01, 'atm'), Pmax=(98.692, 'atm'),
                   coeffs=[[ 5.45000e-01,  7.88900e-01, -3.84400e-03, -3.45200e-03,  3.61800e-04,  1.52400e-04,  1.53100e-04, -2.50600e-05],
                           [-2.07600e-01,  1.31700e+00,  1.39200e-02, -5.29100e-03,  1.02700e-03,  7.65800e-05,  2.64900e-04, -4.40100e-05],
                           [-3.30900e+00,  7.23100e-01,  4.24900e-02,  2.45000e-03,  1.10500e-03, -2.32200e-04,  1.20100e-04, -2.77300e-05],
                           [-2.26800e+00,  1.58400e-01,  3.32200e-02,  1.20500e-02,  1.50900e-03, -3.78800e-04, -4.80400e-05, -2.05100e-05],
                           [-1.34000e+00, -1.51200e-01, -5.64800e-03,  1.25800e-02,  2.63100e-03, -1.35000e-04, -1.60300e-04, -2.54300e-05],
                           [-6.74500e-01, -2.04400e-01, -3.69600e-02,  2.68600e-03,  2.62200e-03,  5.34000e-04, -1.33400e-04, -3.54300e-05],
                           [-2.31600e-01, -1.22200e-01, -4.06700e-02, -7.98400e-03,  4.18100e-04,  1.00300e-03,  6.11900e-05, -2.72100e-05],
                           [-1.55000e-03, -2.18800e-02, -2.42600e-02, -1.10000e-02, -2.21200e-03,  6.99200e-04,  2.52800e-04,  1.64200e-05],
                           [ 8.75600e-02,  3.90600e-02, -5.16400e-03, -6.47700e-03, -2.92600e-03, -8.09200e-05,  2.28100e-04,  5.81700e-05],
                           [ 4.57500e-02,  5.48500e-02,  6.01600e-03, -3.33100e-05, -1.42400e-03, -5.73100e-04,  7.96000e-06,  4.09500e-05]])

# Reaction 5
chebyshev_reaction('O2 + gR (+ M) <=> gRO2 (+ M)',
                   Tmin=180.0, Tmax=1500.0,
                   Pmin=(0.01, 'atm'), Pmax=(98.692, 'atm'),
                   coeffs=[[ 1.21000e+01,  6.65600e-01, -8.45300e-02,  1.85700e-02, -5.02700e-03,  1.22500e-03, -1.87000e-04,  9.18500e-06],
                           [-3.20100e+00,  1.02700e+00, -6.57100e-02,  4.44700e-03,  1.80000e-04, -4.86500e-04,  3.20500e-04, -1.12100e-04],
                           [-2.17500e+00,  5.30500e-01,  3.49800e-02, -9.13800e-03,  1.51500e-03, -5.11000e-04,  1.83900e-04, -4.32400e-05],
                           [-1.41700e+00,  1.47300e-01,  6.00500e-02, -3.30100e-03,  2.43200e-04, -4.24200e-04,  7.97000e-05,  7.51100e-06],
                           [-8.43900e-01, -5.13500e-02,  3.84000e-02,  2.39600e-03,  6.07100e-04, -4.26500e-04, -5.25500e-05,  4.50800e-05],
                           [-4.32700e-01, -1.15800e-01,  1.06200e-02,  2.15300e-03,  1.08400e-03, -7.42200e-05, -1.39900e-04,  3.35600e-05],
                           [-1.62400e-01, -1.06100e-01, -7.88400e-03, -1.35100e-04,  6.23000e-04,  2.65500e-04, -7.73700e-05,  7.34300e-07],
                           [-8.97800e-03, -6.35600e-02, -1.63800e-02, -1.59100e-03, -8.23700e-05,  2.93400e-04,  3.14500e-05, -9.55800e-06],
                           [ 5.56100e-02, -1.54800e-02, -1.67200e-02, -2.10100e-03, -3.42000e-04,  1.30200e-04,  7.69200e-05, -4.30000e-06],
                           [ 6.20200e-02,  2.08100e-02, -1.11600e-02, -1.98400e-03, -2.24300e-04, -1.46400e-05,  5.77500e-05, -2.10400e-06]])
#  gRO2(+M) <=> gQOOH[O](+M)                           1.000e+00 0.000     0.000
#      TCHEB/ 180.000   1500.000 /
#      PCHEB/ 0.010     98.692   /
#      CHEB/ 10 8/
#      CHEB/ -8.021e+00   1.340e+00    -1.621e-01   4.026e-03    4.310e-03   /
#      CHEB/ 2.365e-04    -1.240e-04   3.158e-05    3.689e+00    1.019e+00   /
#      CHEB/ 6.571e-02    -2.179e-02   -4.244e-03   3.500e-03    5.924e-04   /
#      CHEB/ -3.956e-04   -3.821e+00   -9.265e-02   4.896e-03    2.833e-02   /
#      CHEB/ 1.051e-03    -1.400e-03   7.574e-05    1.294e-04    -2.074e+00  /
#      CHEB/ -1.971e-01   -8.395e-02   1.083e-03    9.513e-03    1.882e-03   /
#      CHEB/ -8.896e-04   -3.356e-04   -1.042e+00   -3.740e-02   -3.823e-02  /
#      CHEB/ -1.737e-02   2.246e-04    2.357e-03    3.725e-04    -3.000e-04  /
#      CHEB/ -5.170e-01   -2.480e-02   1.737e-02    1.931e-04    -2.758e-03  /
#      CHEB/ -1.224e-03   3.593e-05    1.922e-04    -2.303e-01   -7.221e-02  /
#      CHEB/ 7.672e-03    1.004e-02    3.094e-03    -8.840e-04   -9.169e-04  /
#      CHEB/ -7.541e-05   -5.864e-02   -6.268e-02   -1.931e-02   -3.107e-04  /
#      CHEB/ 3.463e-03    1.563e-03    -2.321e-04   -3.231e-04   3.501e-02   /
#      CHEB/ -9.446e-03   -2.155e-02   -7.570e-03   -1.466e-03   8.434e-04   /
#      CHEB/ 6.508e-04    6.285e-05    6.211e-02    2.594e-02    -4.007e-03  /
#      CHEB/ -4.122e-03   -3.194e-03   -8.522e-04   1.937e-04    2.293e-04   /

# Reaction 6
chebyshev_reaction('gQOOHa (+ M) <=> gQOOH[O] (+ M)',
                   Tmin=180.0, Tmax=1500.0,
                   Pmin=(0.01, 'atm'), Pmax=(98.692, 'atm'),
                   coeffs=[[-9.27800e+00,  2.09300e+00,  1.14300e-01, -4.39900e-03, -5.67600e-02, -2.71000e-02, -1.01500e-03,  5.64800e-03],
                           [-2.60600e+00,  2.81400e-01, -1.70300e-01,  2.85400e-02,  7.68400e-02,  3.30600e-02, -2.66300e-03, -9.42200e-03],
                           [-4.26700e+00, -2.99700e-01, -1.26700e-01, -2.74400e-02, -1.05000e-02,  3.79200e-03,  6.83800e-03,  3.48300e-03],
                           [-2.00400e+00, -1.10200e-01, -6.68200e-02, -1.45900e-02, -6.18700e-03, -4.31700e-03, -1.18600e-03,  1.15500e-03],
                           [-1.02200e+00,  3.91600e-02,  3.32800e-03, -3.10200e-03,  3.86100e-04, -7.50900e-04, -1.92600e-03, -1.15400e-03],
                           [-4.74600e-01, -1.53900e-02,  2.33500e-02,  5.19300e-03,  7.36600e-05, -3.74100e-04, -3.17900e-04, -4.42600e-04],
                           [-2.10100e-01, -8.62200e-02,  3.59000e-03,  1.23200e-02,  5.59900e-03,  3.60800e-04, -5.87500e-04, -1.80900e-04],
                           [-1.08900e-01, -6.35000e-02, -2.15100e-02, -1.26800e-03,  3.79000e-03,  2.48700e-03,  5.20100e-04,  1.31500e-05],
                           [ 4.09000e-02, -3.00200e-02, -3.23900e-02, -1.07400e-02, -1.85800e-03,  8.81800e-04,  7.20400e-04,  2.21900e-04],
                           [ 5.19200e-02,  3.07500e-02, -5.51200e-03, -7.67300e-03, -5.46300e-03, -1.45600e-03,  3.03500e-04,  3.94500e-04]])

# Reaction 7
chebyshev_reaction('gQOOHg (+ M) <=> gQOOH[O] (+ M)',
                   Tmin=180.0, Tmax=1500.0,
                   Pmin=(0.01, 'atm'), Pmax=(98.692, 'atm'),
                   coeffs=[[-8.03000e+00,  8.93600e-01, -3.37300e-01, -4.81000e-02,  1.63100e-02,  4.50000e-03, -3.54500e-05, -4.85700e-04],
                           [ 1.99600e+00,  1.12700e+00,  3.21000e-01,  1.86300e-02, -4.29100e-02,  1.43400e-03,  3.86200e-03,  4.71300e-04],
                           [-3.22200e+00, -9.06300e-02, -5.86900e-03,  9.15000e-02,  1.59000e-02, -1.05700e-02, -2.31500e-03,  8.00600e-04],
                           [-1.96400e+00, -1.68300e-01, -8.58000e-02, -3.48500e-03,  2.37900e-02,  6.09800e-03, -2.88000e-03, -1.56700e-03],
                           [-1.03700e+00, -7.01600e-02, -8.13800e-03, -2.71200e-02, -7.68800e-04,  5.23400e-03,  1.16700e-03, -5.40600e-04],
                           [-5.23200e-01, -1.25400e-01,  4.16100e-02,  6.79700e-03, -9.38900e-03, -1.87100e-03,  1.30000e-03,  4.38900e-04],
                           [-2.61400e-01, -1.53700e-01, -4.34900e-03,  1.99100e-02,  2.42100e-03, -2.78200e-03, -7.84900e-04,  3.69600e-04],
                           [-8.50700e-02, -1.19400e-01, -4.93900e-02,  2.66300e-03,  6.49700e-03,  9.73700e-04, -5.52200e-04, -1.53900e-04],
                           [ 9.42900e-03, -3.01000e-02, -5.29200e-02, -1.30600e-02,  1.41700e-03,  1.81800e-03,  4.28200e-04,  1.50600e-05],
                           [ 6.11100e-02,  2.37700e-02, -1.91000e-02, -1.45000e-02, -2.81000e-03,  5.88300e-04,  3.86500e-04,  1.02700e-04]])

# Reaction 8
chebyshev_reaction('gQOOHb (+ M) <=> gQOOH[O] (+ M)',
                   Tmin=180.0, Tmax=1500.0,
                   Pmin=(0.01, 'atm'), Pmax=(98.692, 'atm'),
                   coeffs=[[-9.75400e+00,  4.80500e-01, -1.98900e-01, -2.04300e-02,  4.03700e-03,  7.76700e-04,  2.49100e-04,  1.76400e-04],
                           [ 8.93200e-01,  2.15900e+00,  1.57300e-01, -2.98500e-02, -1.60600e-02,  2.84800e-03,  1.82300e-03, -6.46100e-05],
                           [-3.77600e+00,  1.86400e-01,  3.10000e-02,  5.76100e-02,  5.92700e-03, -3.41600e-03, -9.60000e-04,  4.27300e-05],
                           [-2.26300e+00, -1.98900e-01, -1.21600e-01,  1.44100e-02,  1.92000e-02,  4.00200e-03, -1.61200e-03, -1.01600e-03],
                           [-1.14500e+00, -7.40300e-02, -7.41300e-02, -1.98600e-02,  1.86200e-03,  4.25500e-03,  1.03300e-03, -4.07600e-04],
                           [-5.42300e-01, -2.95700e-02,  3.05900e-03, -6.02700e-03, -6.14400e-03, -1.53100e-03,  6.11200e-04,  5.62800e-04],
                           [-2.22500e-01, -4.84000e-02,  9.01800e-03,  5.42600e-03, -3.84700e-04, -1.90100e-03, -8.80700e-04,  1.84500e-04],
                           [-5.22400e-02, -3.77200e-02, -9.93300e-03, -2.20400e-03,  1.71800e-03,  9.09200e-04, -3.84700e-04, -2.75300e-04],
                           [ 2.31300e-02,  3.17200e-03, -1.23500e-02, -6.50100e-03, -1.52500e-03,  6.43200e-04,  5.24000e-04,  1.82200e-05],
                           [ 4.63600e-02,  2.09400e-02,  2.70200e-03, -2.03800e-03, -2.03100e-03, -7.41200e-04,  9.83200e-05,  1.63100e-04]])

# Reaction 9
chebyshev_reaction('O2 + gR (+ M) <=> gQOOH[O] (+ M)',
                   Tmin=180.0, Tmax=1500.0,
                   Pmin=(0.01, 'atm'), Pmax=(98.692, 'atm'),
                   coeffs=[[ 3.47400e+00,  1.56300e+00, -2.92500e-01, -1.43300e-01, -1.81700e-02,  2.34000e-02,  9.88500e-03, -3.21800e-03],
                           [-3.98400e+00,  4.17200e-01,  2.33300e-01,  1.25900e-01, -1.27900e-02, -2.74600e-02, -5.98300e-03,  5.95100e-03],
                           [-2.52300e+00, -1.13700e-01, -5.49800e-02,  4.78000e-02,  3.19700e-02, -9.42900e-04, -5.37500e-03, -2.21700e-03],
                           [-1.23000e+00, -7.90000e-02, -1.03800e-01, -3.17400e-02,  1.97200e-02,  1.00400e-02, -3.58300e-04, -2.42700e-03],
                           [-5.70700e-01,  7.95700e-02,  6.21500e-04, -4.00000e-02, -8.31100e-03,  3.78900e-03,  3.11600e-03,  2.51700e-04],
                           [-2.92700e-01,  4.86900e-02,  6.65400e-02, -3.17600e-03, -1.11200e-02, -3.67400e-03,  9.30800e-04,  1.16300e-03],
                           [-1.67400e-01, -4.47900e-02,  4.09500e-02,  1.73500e-02, -2.58000e-04, -3.07300e-03, -1.26300e-03,  3.37200e-04],
                           [-7.13700e-02, -7.72100e-02, -7.32200e-03,  8.92800e-03,  4.29200e-03,  7.43400e-04, -8.27600e-04, -3.59600e-04],
                           [-7.89700e-03, -4.05100e-02, -2.80600e-02, -6.22800e-04,  8.89100e-04,  9.59500e-04,  2.81000e-04, -7.68600e-05],
                           [ 3.84600e-02, -1.05200e-02, -1.59400e-02, -2.91900e-03, -5.40800e-04, -1.97000e-04,  8.03400e-07,  5.92400e-05]])
#  gRO2(+M) <=> gQOOHa(+M)                             1.000e+00 0.000     0.000
#      TCHEB/ 180.000   1500.000 /
#      PCHEB/ 0.010     98.692   /
#      CHEB/ 10 8/
#      CHEB/ -1.932e+00   1.936e+00    -6.361e-02   -1.769e-02   -3.177e-03  /
#      CHEB/ 1.272e-04    3.018e-04    1.705e-04    -2.290e+00   2.396e-01   /
#      CHEB/ 6.744e-02    2.635e-02    6.219e-03    1.865e-03    1.649e-04   /
#      CHEB/ -4.212e-04   -3.438e+00   -5.527e-02   -5.741e-02   -1.412e-02  /
#      CHEB/ -7.484e-04   1.573e-03    8.000e-04    2.038e-04    -1.730e+00  /
#      CHEB/ -1.339e-02   -1.067e-02   -3.529e-03   -8.368e-04   9.632e-05   /
#      CHEB/ 1.203e-06    -6.725e-05   -1.038e+00   -3.684e-02   -1.889e-04  /
#      CHEB/ 5.461e-04    1.478e-03    1.216e-03    3.572e-04    -4.328e-05  /
#      CHEB/ -4.856e-01   -9.142e-02   -2.017e-02   -6.371e-03   -7.691e-04  /
#      CHEB/ 5.340e-04    3.481e-04    1.425e-04    -1.937e-01   -6.840e-02  /
#      CHEB/ -1.574e-02   -5.058e-03   -1.315e-03   9.159e-06    7.277e-05   /
#      CHEB/ 2.694e-05    -7.838e-02   -2.588e-02   -8.893e-03   -2.136e-03  /
#      CHEB/ -7.028e-04   1.504e-04    1.568e-04    3.099e-05    5.250e-02   /
#      CHEB/ -1.277e-02   -1.589e-02   -3.595e-03   -7.030e-04   4.081e-05   /
#      CHEB/ 1.371e-04    7.292e-05    4.883e-02    2.926e-02    -4.814e-03  /
#      CHEB/ -2.531e-03   -1.298e-03   -4.392e-04   4.082e-07    4.037e-05   /
#  gQOOH[O](+M) <=> gQOOHa(+M)                         1.000e+00 0.000     0.000
#      TCHEB/ 180.000   1500.000 /
#      PCHEB/ 0.010     98.692   /
#      CHEB/ 10 8/
#      CHEB/ -2.749e+00   2.093e+00    1.143e-01    -4.399e-03   -5.676e-02  /
#      CHEB/ -2.710e-02   -1.015e-03   5.648e-03    -7.113e+00   2.814e-01   /
#      CHEB/ -1.703e-01   2.854e-02    7.684e-02    3.306e-02    -2.663e-03  /
#      CHEB/ -9.422e-03   -4.278e+00   -2.997e-01   -1.267e-01   -2.744e-02  /
#      CHEB/ -1.050e-02   3.792e-03    6.838e-03    3.483e-03    -2.054e+00  /
#      CHEB/ -1.102e-01   -6.682e-02   -1.459e-02   -6.187e-03   -4.317e-03  /
#      CHEB/ -1.186e-03   1.155e-03    -1.048e+00   3.916e-02    3.328e-03   /
#      CHEB/ -3.102e-03   3.861e-04    -7.509e-04   -1.926e-03   -1.154e-03  /
#      CHEB/ -4.839e-01   -1.539e-02   2.335e-02    5.193e-03    7.366e-05   /
#      CHEB/ -3.741e-04   -3.179e-04   -4.426e-04   -2.134e-01   -8.622e-02  /
#      CHEB/ 3.590e-03    1.232e-02    5.599e-03    3.608e-04    -5.875e-04  /
#      CHEB/ -1.809e-04   -1.102e-01   -6.350e-02   -2.151e-02   -1.268e-03  /
#      CHEB/ 3.790e-03    2.487e-03    5.201e-04    1.315e-05    4.044e-02   /
#      CHEB/ -3.002e-02   -3.239e-02   -1.074e-02   -1.858e-03   8.818e-04   /