units(length='cm', time='s', quantity='mol', act_energy='kcal/mol')

ideal_gas(name='gas',
          elements="H D T C Ci O Oi N Ne Ar He Si S F Cl Br I X",
          species="""propene3ol       OH               disub_c4ether
                     H2O              disub_epoxy      gQOOHa
                     propene1ol       gQOOHb           ipropylOOH
                     galdoxy          galkene          CH2O
                     O2               gRO2             gQOOHg
                     gR               galdol           monosub_c4ether
                     HO2              gQOOH[O]""",
          reactions='all',
          initial_state=state(temperature=300.0, pressure=OneAtm))

#-------------------------------------------------------------------------------
# Element data
#-------------------------------------------------------------------------------

element(symbol='Ci', atomic_mass=13.003)
element(symbol='D', atomic_mass=2.014)
element(symbol='Oi', atomic_mass=18.0)
element(symbol='T', atomic_mass=3.016)
element(symbol='X', atomic_mass=195.083)
#-------------------------------------------------------------------------------
# Species data
#-------------------------------------------------------------------------------

species(name='propene3ol',
        atoms='C:3 H:6 O:1',
        thermo=(NASA([10.00, 444.81],
                     [ 3.92769709E+00,  4.89977303E-03,  1.13094874E-04,
                      -2.59008187E-07,  1.86205760E-10, -1.43780801E+04,
                       9.90805416E+00]),
                NASA([444.81, 3000.00],
                     [ 2.61720343E+00,  3.01777872E-02, -1.76511625E-05,
                       5.14864061E-09, -5.91153761E-13, -1.43949806E+04,
                       1.36683107E+01])))

species(name='OH',
        atoms='H:1 O:1',
        thermo=(NASA([10.00, 984.14],
                     [ 3.49686242E+00,  1.83973160E-04, -9.97634499E-07,
                       1.56942783E-09, -6.10128175E-13,  3.41673934E+03,
                       1.48093120E+00]),
                NASA([984.14, 3000.00],
                     [ 3.45221464E+00, -2.95124034E-04,  7.39418622E-07,
                      -2.89309866E-10,  3.53041498E-14,  3.45751599E+03,
                       1.85813897E+00])))

species(name='disub_c4ether',
        atoms='C:4 H:8 O:2',
        thermo=(NASA([10.00, 413.50],
                     [ 3.78241323E+00,  1.89501763E-02,  8.65302396E-05,
                      -1.80580575E-07,  1.13656264E-10, -3.89199779E+04,
                       1.09982450E+01]),
                NASA([413.50, 3000.00],
                     [ 4.29420885E-01,  5.13851903E-02, -3.11292293E-05,
                       9.11498284E-09, -1.03192718E-12, -3.86426835E+04,
                       2.42134976E+01])))

species(name='H2O',
        atoms='H:2 O:1',
        thermo=(NASA([10.00, 773.84],
                     [ 4.00473541E+00, -2.39729134E-04,  8.11862955E-07,
                       1.47891862E-09, -1.19783539E-12, -3.03533807E+04,
                      -9.96254147E-02]),
                NASA([773.84, 3000.00],
                     [ 3.52133374E+00,  1.05377009E-03,  6.40722099E-07,
                      -3.86240235E-10,  5.49243294E-14, -3.02424794E+04,
                       2.34173094E+00])))

species(name='disub_epoxy',
        atoms='C:4 H:8 O:2',
        thermo=(NASA([10.00, 549.41],
                     [ 3.89863211E+00,  5.97532637E-03,  1.66685676E-04,
                      -3.10743768E-07,  1.78330192E-10, -3.60556727E+04,
                       1.13847308E+01]),
                NASA([549.41, 3000.00],
                     [-6.40277648E-01,  6.05960003E-02, -4.13427220E-05,
                       1.31555461E-08, -1.57685017E-12, -3.58825558E+04,
                       2.76005436E+01])))

species(name='gQOOHa',
        atoms='C:4 H:9 O:3',
        thermo=(NASA([10.00, 160.74],
                     [ 3.80808147E+00,  2.31043884E-02,  5.26945984E-04,
                      -3.11500696E-06,  6.03881958E-09, -2.41979710E+04,
                       1.17645316E+01]),
                NASA([160.74, 3000.00],
                     [ 2.90630300E+00,  6.50241173E-02, -4.60073244E-05,
                       1.51330930E-08, -1.87074267E-12, -2.41941465E+04,
                       1.36838819E+01])))

species(name='propene1ol',
        atoms='C:3 H:6 O:1',
        thermo=(NASA([10.00, 459.42],
                     [ 3.91245344E+00,  5.85800161E-03,  1.15412006E-04,
                      -2.68014417E-07,  1.91800131E-10, -1.69008549E+04,
                       8.14807684E+00]),
                NASA([459.42, 3000.00],
                     [ 3.14049093E+00,  2.95550898E-02, -1.73843684E-05,
                       5.11506211E-09, -5.92966137E-13, -1.70090774E+04,
                       9.32215170E+00])))

species(name='gQOOHb',
        atoms='C:4 H:9 O:3',
        thermo=(NASA([10.00, 1018.67],
                     [ 3.99028351E+00,  4.29665712E-02,  2.28338778E-05,
                      -5.67914439E-08,  2.29383258E-11, -2.37517296E+04,
                       1.20326731E+01]),
                NASA([1018.67, 3000.00],
                     [ 1.38304153E+01,  3.88527019E-02, -2.19473905E-05,
                       5.78719895E-09, -5.85097740E-13, -2.75478144E+04,
                      -4.44147388E+01])))

species(name='ipropylOOH',
        atoms='C:3 H:7 O:2',
        thermo=(NASA([10.00, 405.01],
                     [ 3.30075623E+00,  7.58672756E-02, -3.35754269E-04,
                       8.05972164E-07, -6.68864582E-10, -2.74004208E+02,
                       1.43372849E+01]),
                NASA([405.01, 3000.00],
                     [ 2.51742509E+00,  3.72760950E-02, -2.12450220E-05,
                       5.83593926E-09, -6.22110649E-13,  1.69403399E+02,
                       2.20991392E+01])))

species(name='galdoxy',
        atoms='C:4 H:7 O:2',
        thermo=(NASA([10.00, 209.62],
                     [ 3.82641108E+00,  1.84758886E-02,  3.43073800E-04,
                      -1.82817005E-06,  2.98516720E-09, -1.90980853E+04,
                       1.17972706E+01]),
                NASA([209.62, 3000.00],
                     [ 4.22049016E+00,  4.03370149E-02, -2.36129482E-05,
                       6.72979114E-09, -7.47862493E-13, -1.91791550E+04,
                       8.97211724E+00])))

species(name='galkene',
        atoms='C:4 H:8 O:1',
        thermo=(NASA([10.00, 383.47],
                     [ 3.84035604E+00,  1.20378740E-02,  1.87486319E-04,
                      -5.44759148E-07,  4.80711015E-10, -2.15656998E+04,
                       1.02570291E+01]),
                NASA([383.47, 3000.00],
                     [ 4.00413385E+00,  3.79025144E-02, -2.15435710E-05,
                       6.15213311E-09, -6.97446345E-13, -2.17809891E+04,
                       6.98052628E+00])))

species(name='CH2O',
        atoms='C:1 H:2 O:1',
        thermo=(NASA([10.00, 601.31],
                     [ 4.03190845E+00, -1.93233367E-03,  8.89743345E-06,
                       2.98105926E-09, -7.90813886E-12, -1.42276270E+04,
                       3.47574660E+00]),
                NASA([601.31, 3000.00],
                     [ 1.40134195E+00,  9.48858016E-03, -4.43088317E-06,
                       9.48452194E-10, -7.43790219E-14, -1.38013869E+04,
                       1.57423780E+01])))

species(name='O2',
        atoms='O:2',
        thermo=(NASA([10.00, 605.96],
                     [ 3.50743498E+00, -4.43860349E-04,  1.45938058E-06,
                       1.61509333E-09, -2.32050052E-12, -9.24756224E+02,
                       4.72183634E+00]),
                NASA([605.96, 3000.00],
                     [ 2.87462882E+00,  2.17840991E-03, -1.18262921E-06,
                       2.86910493E-10, -2.53297146E-14, -8.19517838E+02,
                       7.69331810E+00])))

species(name='gRO2',
        atoms='C:4 H:9 O:3',
        thermo=(NASA([10.00, 177.33],
                     [ 3.70632176E+00,  3.49733664E-02,  4.64036392E-04,
                      -3.18637835E-06,  6.38178607E-09, -2.56716871E+04,
                       1.24459269E+01]),
                NASA([177.33, 3000.00],
                     [ 4.82062697E+00,  5.17179689E-02, -3.18386818E-05,
                       9.52247045E-09, -1.10180288E-12, -2.57770576E+04,
                       7.14082953E+00])))

species(name='gQOOHg',
        atoms='C:4 H:9 O:3',
        thermo=(NASA([10.00, 475.03],
                     [ 3.42273720E+00,  4.98344215E-02,  6.47820920E-05,
                      -2.49842966E-07,  1.98636537E-10, -2.26873571E+04,
                       1.41578583E+01]),
                NASA([475.03, 3000.00],
                     [ 5.94049074E+00,  5.53778585E-02, -3.71708255E-05,
                       1.17540477E-08, -1.40812095E-12, -2.32283114E+04,
                       7.09201218E-01])))

species(name='gR',
        atoms='C:4 H:9 O:1',
        thermo=(NASA([10.00, 638.24],
                     [ 3.37074633E+00,  5.17529751E-02, -6.54872940E-05,
                       6.88084237E-08, -3.21569794E-11, -1.17642988E+04,
                       1.14339669E+01]),
                NASA([638.24, 3000.00],
                     [ 3.99410860E+00,  4.06314915E-02, -2.23932510E-05,
                       6.08356263E-09, -6.49884708E-13, -1.16969241E+04,
                       9.85769960E+00])))

species(name='galdol',
        atoms='C:4 H:8 O:2',
        thermo=(NASA([10.00, 506.68],
                     [ 3.85380874E+00,  9.21272695E-03,  1.86712348E-04,
                      -3.96417049E-07,  2.55528268E-10, -4.61488020E+04,
                       1.24312743E+01]),
                NASA([506.68, 3000.00],
                     [ 1.49710213E+00,  5.65979142E-02, -3.87709084E-05,
                       1.23682052E-08, -1.48287964E-12, -4.62794114E+04,
                       1.85531759E+01])))

species(name='monosub_c4ether',
        atoms='C:4 H:8 O:2',
        thermo=(NASA([10.00, 380.36],
                     [ 3.47743996E+00,  6.08051311E-02, -2.78518945E-04,
                       8.23182713E-07, -7.87158031E-10, -3.47015780E+04,
                       1.06415154E+01]),
                NASA([380.36, 3000.00],
                     [-1.09346901E+00,  5.35985968E-02, -3.21081420E-05,
                       9.20818293E-09, -1.01830294E-12, -3.39540180E+04,
                       3.35312368E+01])))

species(name='HO2',
        atoms='H:1 O:2',
        thermo=(NASA([10.00, 891.11],
                     [ 4.02887004E+00, -1.75769289E-03,  1.08726004E-05,
                      -1.13812972E-08,  3.90113097E-12,  4.95165001E+02,
                       4.69302008E+00]),
                NASA([891.11, 3000.00],
                     [ 3.06571044E+00,  4.28505005E-03, -2.19325920E-06,
                       5.58882699E-10, -5.61246669E-14,  5.98557610E+02,
                       8.84564156E+00])))

species(name='gQOOH[O]',
        atoms='C:4 H:9 O:3',
        thermo=(NASA([10.00, 535.23],
                     [ 3.83107445E+00,  1.02302002E-02,  2.29377261E-04,
                      -4.59095575E-07,  2.77765018E-10, -2.01020835E+04,
                       1.41034859E+01]),
                NASA([535.23, 3000.00],
                     [-4.19283096E-01,  7.69784620E-02, -5.57279000E-05,
                       1.81378295E-08, -2.18295635E-12, -2.01481969E+04,
                       2.72711816E+01])))

#-------------------------------------------------------------------------------
# Reaction data
#-------------------------------------------------------------------------------

# Reaction 1
chebyshev_reaction('gQOOH[O] (+ M) <=> gRO2 (+ M)',
                   Tmin=180.0, Tmax=1500.0,
                   Pmin=(0.01, 'atm'), Pmax=(98.692, 'atm'),
                   coeffs=[[ 5.12400e+00,  9.12900e-01, -1.32200e-01,  7.51600e-03,  4.63500e-03,  3.47600e-04, -2.66600e-04, -7.39300e-05],
                           [-2.76200e+00,  9.97500e-01, -3.32300e-02, -1.65800e-02,  6.64700e-03,  2.08600e-03, -5.92400e-04, -2.48300e-04],
                           [-3.42400e+00,  6.74200e-02,  5.94900e-02,  1.20400e-02, -1.48300e-03, -1.12100e-04,  5.16500e-06, -1.43000e-05],
                           [-2.06600e+00, -2.40500e-01, -9.88800e-03,  2.48700e-02,  4.72900e-03, -2.18500e-03, -6.75800e-04,  2.61100e-04],
                           [-1.03400e+00, -1.77300e-01, -4.98700e-02,  5.05100e-03,  6.64900e-03,  4.54800e-05, -8.32500e-04, -1.69300e-05],
                           [-4.57200e-01, -5.48700e-02, -2.90800e-02, -9.13800e-03,  3.38200e-04,  1.15200e-03,  1.60800e-04, -9.42200e-05],
                           [-1.72300e-01,  3.86400e-03,  1.09600e-03, -6.14100e-03, -3.57700e-03, -2.41100e-04,  5.23800e-04,  1.68000e-04],
                           [-6.10900e-02,  7.61700e-03,  6.82600e-03,  1.59200e-03, -1.71700e-03, -1.06600e-03, -2.77600e-05,  2.00200e-04],
                           [-1.05300e-02, -6.53000e-03, -3.04700e-03,  2.13600e-03,  1.46100e-03, -1.35900e-04, -3.77700e-04, -5.68300e-05],
                           [ 2.45300e-03, -5.03200e-03, -1.26600e-02, -2.17400e-03,  1.72500e-03,  9.69100e-04, -7.05600e-05, -1.95200e-04]])

# Reaction 2
chebyshev_reaction('gQOOHa (+ M) <=> gRO2 (+ M)',
                   Tmin=180.0, Tmax=1500.0,
                   Pmin=(0.01, 'atm'), Pmax=(98.692, 'atm'),
                   coeffs=[[-5.50900e-02,  1.40200e+00, -1.58200e-01,  1.02700e-02, -4.12500e-03,  3.61900e-03, -3.62700e-04, -2.93900e-04],
                           [ 2.99700e-01,  1.43100e+00,  1.01700e-01, -6.23400e-02,  8.16300e-03,  2.30900e-03, -1.54100e-04, -1.98000e-04],
                           [-2.83800e+00,  1.30000e-01,  1.52100e-01,  2.22900e-02, -6.88800e-03, -2.59700e-03,  9.96700e-04,  3.39300e-04],
                           [-1.80400e+00, -3.57000e-01,  2.46700e-02,  5.10600e-02,  2.19700e-03, -3.88500e-03, -1.18700e-04,  3.16600e-04],
                           [-1.00500e+00, -2.94000e-01, -5.93800e-02,  1.78400e-02,  7.43600e-03,  1.29000e-03, -6.35400e-04, -3.73700e-04],
                           [-4.61400e-01, -1.36500e-01, -5.12800e-02, -1.29900e-02,  2.35900e-03,  3.13100e-03,  3.24100e-04, -3.25300e-04],
                           [-1.64900e-01, -3.66200e-02, -2.12100e-02, -1.42900e-02, -2.32200e-03,  4.83300e-04,  6.45900e-04,  2.35900e-04],
                           [-7.61300e-02,  1.81700e-02, -1.49500e-02,  2.39200e-04, -2.52600e-03, -1.51600e-03,  2.04500e-05,  3.31400e-04],
                           [ 1.72000e-02,  3.81500e-04,  7.99500e-04,  8.31800e-04,  1.24100e-03, -9.99000e-04, -5.25100e-04,  1.41000e-05],
                           [ 9.29500e-03,  7.66100e-03, -5.03700e-03,  6.72500e-04,  1.86700e-03,  4.54900e-04, -2.99500e-04, -2.36000e-04]])

# Reaction 3
chebyshev_reaction('gQOOHg (+ M) <=> gRO2 (+ M)',
                   Tmin=180.0, Tmax=1500.0,
                   Pmin=(0.01, 'atm'), Pmax=(98.692, 'atm'),
                   coeffs=[[ 1.44900e+00,  5.49100e-01, -2.55000e-03,  7.17800e-03, -4.86600e-04,  5.24000e-05, -1.61200e-04, -9.89000e-05],
                           [ 1.96300e+00,  9.51500e-01,  1.62700e-02,  1.13300e-02, -4.12500e-04, -4.99400e-05, -2.71300e-04, -1.56300e-04],
                           [-2.36200e+00,  5.86800e-01,  5.97100e-02,  6.48300e-03,  4.07100e-04, -3.03700e-04, -1.53500e-04, -5.02600e-05],
                           [-1.98000e+00,  1.75000e-01,  8.43300e-02,  6.59000e-03,  3.79000e-04, -3.80500e-04, -1.43100e-05,  6.83700e-05],
                           [-1.36000e+00, -1.29200e-01,  6.73600e-02,  1.19400e-02, -3.73800e-05, -3.11400e-04,  1.30500e-04,  1.41100e-04],
                           [-7.09900e-01, -2.62000e-01,  1.95800e-02,  1.61500e-02,  4.72200e-04, -2.28300e-04,  2.38400e-04,  1.40100e-04],
                           [-3.20800e-01, -2.48600e-01, -2.99900e-02,  1.35100e-02,  2.15000e-03, -5.49900e-05,  2.27000e-04,  7.55400e-05],
                           [-8.31500e-02, -1.56300e-01, -5.77400e-02,  4.29100e-03,  3.76100e-03,  3.58200e-04,  6.64000e-05, -2.46300e-05],
                           [ 2.88000e-02, -4.98500e-02, -5.70600e-02, -6.36100e-03,  3.88700e-03,  9.12400e-04, -1.56400e-04, -1.26000e-04],
                           [ 7.37900e-02,  3.01200e-02, -3.56700e-02, -1.29900e-02,  2.16800e-03,  1.24000e-03, -2.94600e-04, -1.86700e-04]])

# Reaction 4
chebyshev_reaction('gQOOHb (+ M) <=> gRO2 (+ M)',
                   Tmin=180.0, Tmax=1500.0,
                   Pmin=(0.01, 'atm'), Pmax=(98.692, 'atm'),
                   coeffs=[[-1.06100e+00,  1.26400e+00, -4.04300e-02,  3.10800e-02, -1.35100e-02,  3.59500e-04,  3.13500e-04,  2.64700e-05],
                           [-4.84700e-01,  1.33400e+00,  1.86100e-01, -1.79400e-02, -3.29500e-03, -1.74600e-03,  5.03300e-04,  8.27500e-05],
                           [-2.84900e+00,  1.57600e-01,  1.13800e-01,  8.46200e-03,  1.79600e-03, -3.33200e-04, -8.56200e-05,  4.68600e-05],
                           [-1.67200e+00, -2.50100e-01, -4.37300e-02,  1.14200e-02,  8.30600e-03,  9.24100e-04, -3.37900e-04, -8.73900e-05],
                           [-8.86900e-01, -1.95700e-01, -7.87400e-02, -3.26300e-03,  4.32300e-03,  1.39600e-03,  3.01400e-05, -8.28000e-05],
                           [-3.97500e-01, -9.01500e-02, -3.06000e-02, -6.95800e-03, -7.85000e-04, -1.01500e-04,  1.17800e-04,  9.59600e-05],
                           [-1.46100e-01, -3.39800e-02, -1.87000e-03, -1.76000e-03, -6.40100e-04, -8.15800e-04, -1.35800e-04,  7.92900e-05],
                           [-8.53300e-02,  2.83900e-03, -1.33100e-02,  2.93500e-03,  2.66000e-04, -1.48800e-05, -8.75900e-05, -4.37700e-05],
                           [ 1.27000e-02, -1.19600e-02, -6.83500e-03, -4.06100e-03,  8.91900e-04,  5.42400e-04,  1.01400e-04, -1.82800e-05],
                           [ 1.07200e-02,  5.88700e-03, -7.51900e-03, -4.75000e-03, -5.82400e-04,  3.51300e-04,  1.73500e-04,  2.37500e-05]])

# Reaction 5
chebyshev_reaction('O2 + gR (+ M) <=> gRO2 (+ M)',
                   Tmin=180.0, Tmax=1500.0,
                   Pmin=(0.01, 'atm'), Pmax=(98.692, 'atm'),
                   coeffs=[[ 1.13300e+01,  6.62600e-01, -7.95300e-02,  1.21600e-02, -2.67500e-03,  5.17700e-04, -7.66000e-05,  3.25200e-06],
                           [-2.76600e+00,  1.04000e+00, -6.81500e-02,  3.50300e-04,  7.62000e-04, -3.98800e-04,  1.21400e-04, -3.22400e-05],
                           [-1.80900e+00,  5.43100e-01,  3.38500e-02, -1.01000e-02,  8.31000e-04, -1.65100e-04,  4.13800e-05, -1.21900e-05],
                           [-1.14900e+00,  1.60800e-01,  5.99500e-02, -1.78600e-03, -7.26800e-04, -1.98300e-04,  6.38000e-05, -1.61900e-06],
                           [-6.82900e-01, -3.34300e-02,  3.68500e-02,  5.47100e-03,  7.99000e-05, -3.98200e-04,  1.04300e-06,  2.33100e-05],
                           [-3.68400e-01, -9.49100e-02,  7.72700e-03,  5.09000e-03,  1.28600e-03, -1.29800e-04, -8.43700e-05,  1.38400e-05],
                           [-1.68200e-01, -8.81600e-02, -1.01800e-02,  1.47200e-03,  1.26300e-03,  2.55700e-04, -4.51300e-05, -1.09300e-05],
                           [-5.18100e-02, -5.51600e-02, -1.63200e-02, -1.50800e-03,  5.25300e-04,  3.47300e-04,  4.46300e-05, -9.78400e-06],
                           [ 5.79800e-03, -1.92500e-02, -1.44400e-02, -2.88800e-03, -1.18500e-04,  2.04500e-04,  7.43500e-05,  5.69100e-06],
                           [ 2.56000e-02,  7.69300e-03, -8.32100e-03, -2.92700e-03, -4.39600e-04,  2.70800e-05,  4.34200e-05,  1.01200e-05]])
#  gRO2(+M) <=> gQOOH[O](+M)                           1.000e+00 0.000     0.000
#      TCHEB/ 180.000   1500.000 /
#      PCHEB/ 0.010     98.692   /
#      CHEB/ 10 8/
#      CHEB/ -2.887e+00   9.129e-01    -1.322e-01   7.516e-03    4.635e-03   /
#      CHEB/ 3.476e-04    -2.666e-04   -7.393e-05   2.887e+00    9.975e-01   /
#      CHEB/ -3.323e-02   -1.658e-02   6.647e-03    2.086e-03    -5.924e-04  /
#      CHEB/ -2.483e-04   -3.251e+00   6.742e-02    5.949e-02    1.204e-02   /
#      CHEB/ -1.483e-03   -1.121e-04   5.165e-06    -1.430e-05   -1.941e+00  /
#      CHEB/ -2.405e-01   -9.888e-03   2.487e-02    4.729e-03    -2.185e-03  /
#      CHEB/ -6.758e-04   2.611e-04    -9.808e-01   -1.773e-01   -4.987e-02  /
#      CHEB/ 5.051e-03    6.649e-03    4.548e-05    -8.325e-04   -1.693e-05  /
#      CHEB/ -4.381e-01   -5.487e-02   -2.908e-02   -9.138e-03   3.382e-04   /
#      CHEB/ 1.152e-03    1.608e-04    -9.422e-05   -1.660e-01   3.864e-03   /
#      CHEB/ 1.096e-03    -6.141e-03   -3.577e-03   -2.411e-04   5.238e-04   /
#      CHEB/ 1.680e-04    -5.917e-02   7.617e-03    6.826e-03    1.592e-03   /
#      CHEB/ -1.717e-03   -1.066e-03   -2.776e-05   2.002e-04    -1.007e-02  /
#      CHEB/ -6.530e-03   -3.047e-03   2.136e-03    1.461e-03    -1.359e-04  /
#      CHEB/ -3.777e-04   -5.683e-05   2.424e-03    -5.032e-03   -1.266e-02  /
#      CHEB/ -2.174e-03   1.725e-03    9.691e-04    -7.056e-05   -1.952e-04  /

# Reaction 6
chebyshev_reaction('gQOOHa (+ M) <=> gQOOH[O] (+ M)',
                   Tmin=180.0, Tmax=1500.0,
                   Pmin=(0.01, 'atm'), Pmax=(98.692, 'atm'),
                   coeffs=[[-7.49100e+00,  1.04900e+00, -4.41900e-01, -2.58800e-02,  2.37000e-02,  3.87900e-03, -3.12600e-03,  1.25500e-04],
                           [ 1.71800e+00,  1.97900e+00,  2.58600e-01, -7.92800e-02, -1.89100e-02,  8.58200e-03,  3.42400e-03, -1.40200e-03],
                           [-3.73100e+00, -2.42700e-01,  2.16400e-01,  8.23400e-02, -1.14400e-02, -9.63100e-03,  8.31100e-04,  1.14500e-03],
                           [-2.22000e+00, -5.89400e-01, -4.48900e-02,  6.31500e-02,  2.03200e-02, -3.39600e-03, -3.58400e-03, -1.30800e-06],
                           [-1.03600e+00, -3.15900e-01, -1.17000e-01, -1.99200e-03,  1.25800e-02,  5.11800e-03, -6.43200e-04, -9.24100e-04],
                           [-3.87700e-01, -5.18700e-02, -5.51500e-02, -2.67800e-02, -4.50300e-03,  2.99500e-03,  1.93500e-03,  6.77200e-05],
                           [-1.07400e-01,  5.03500e-02,  1.04200e-02, -1.26800e-02, -9.14800e-03, -2.13600e-03,  1.16600e-03,  7.75600e-04],
                           [-3.11500e-02,  4.72600e-02,  1.91200e-02,  9.43800e-03, -3.58800e-03, -3.17700e-03, -6.08200e-04,  3.71000e-04],
                           [-1.06100e-02, -7.67500e-03,  6.76500e-03,  9.30400e-03,  4.71800e-03, -8.51900e-04, -1.18800e-03, -2.38900e-04],
                           [-1.18900e-02, -1.89500e-02, -1.69200e-02,  1.14700e-03,  5.14700e-03,  1.89200e-03, -3.21500e-04, -4.70200e-04]])

# Reaction 7
chebyshev_reaction('gQOOHg (+ M) <=> gQOOH[O] (+ M)',
                   Tmin=180.0, Tmax=1500.0,
                   Pmin=(0.01, 'atm'), Pmax=(98.692, 'atm'),
                   coeffs=[[-5.11800e+00, -1.35300e-01, -2.28300e-01, -7.61700e-04,  1.11300e-02,  1.79400e-03, -1.28900e-03, -3.86100e-04],
                           [ 2.49600e+00,  1.77000e+00,  8.87400e-02, -3.21900e-02, -3.89300e-03,  5.56200e-03,  1.84200e-04, -9.67400e-04],
                           [-3.22000e+00,  2.71200e-01,  1.57900e-01,  4.69000e-02, -8.54500e-03, -5.20700e-03,  7.40900e-04,  7.38200e-04],
                           [-2.35900e+00, -1.37000e-01,  2.82100e-02,  3.98200e-02,  1.11100e-02, -4.30900e-03, -1.96400e-03,  5.94100e-04],
                           [-1.33000e+00, -1.79600e-01, -7.64200e-03,  1.58300e-03,  8.30800e-03,  2.30800e-03, -9.35400e-04, -3.63300e-04],
                           [-6.29500e-01, -1.70800e-01,  9.04300e-03, -5.80200e-03, -3.37800e-03,  2.35600e-03,  1.17900e-03, -1.52100e-04],
                           [-2.46300e-01, -1.45100e-01,  3.05100e-03,  8.06700e-03, -5.36900e-03, -9.66900e-04,  1.14900e-03,  3.60800e-04],
                           [-6.54900e-02, -1.08500e-01, -2.41700e-02,  1.32000e-02,  1.49000e-03, -1.85200e-03, -1.24700e-04,  2.71700e-04],
                           [ 9.04000e-03, -5.85200e-02, -4.68700e-02,  3.38300e-03,  6.72600e-03,  2.54300e-04, -7.87000e-04, -1.72400e-04],
                           [ 3.60500e-02, -1.19300e-04, -4.54000e-02, -1.14600e-02,  5.64700e-03,  2.33300e-03, -4.85900e-04, -3.97500e-04]])

# Reaction 8
chebyshev_reaction('gQOOHb (+ M) <=> gQOOH[O] (+ M)',
                   Tmin=180.0, Tmax=1500.0,
                   Pmin=(0.01, 'atm'), Pmax=(98.692, 'atm'),
                   coeffs=[[-8.76600e+00,  9.29600e-01, -2.18800e-01, -8.47800e-03, -3.64300e-03,  2.96900e-03, -2.60700e-04, -1.94400e-04],
                           [ 9.46200e-01,  1.96400e+00,  2.76700e-01, -9.63500e-03, -1.25100e-02, -3.26400e-03,  1.30000e-03,  3.84600e-04],
                           [-3.69100e+00, -2.03400e-01,  7.65400e-02,  5.18700e-02,  1.50000e-02, -2.50300e-03, -2.12500e-03, -5.77300e-05],
                           [-2.11200e+00, -4.64000e-01, -1.04800e-01,  1.15500e-02,  1.55500e-02,  2.73900e-03, -9.26400e-04, -3.54300e-04],
                           [-9.52300e-01, -2.01700e-01, -8.96600e-02, -1.09100e-02,  1.28400e-03,  6.84100e-04,  3.37700e-04,  1.79600e-04],
                           [-3.54500e-01, -1.80000e-02, -1.60400e-02, -9.36400e-03, -3.95900e-03, -1.23600e-03,  1.01100e-04,  2.64000e-04],
                           [-1.07500e-01,  2.20300e-02,  2.19100e-02,  8.66900e-04, -2.61100e-03, -1.37200e-03, -1.06200e-04,  1.49200e-04],
                           [-3.95100e-02,  1.01600e-02,  8.13500e-03,  9.27900e-03,  2.83800e-04, -5.84200e-04, -2.22500e-04,  1.20300e-05],
                           [-8.14100e-03, -2.97300e-02, -4.50200e-03,  2.00600e-03,  2.99800e-03,  6.89000e-04, -2.22000e-04, -1.24300e-04],
                           [-5.29800e-05, -2.12000e-02, -1.85300e-02, -4.61200e-03,  1.49000e-03,  1.34100e-03,  1.69400e-04, -1.43100e-04]])

# Reaction 9
chebyshev_reaction('O2 + gR (+ M) <=> gQOOH[O] (+ M)',
                   Tmin=180.0, Tmax=1500.0,
                   Pmin=(0.01, 'atm'), Pmax=(98.692, 'atm'),
                   coeffs=[[ 5.74200e+00,  6.86000e-01, -3.92800e-01, -7.57000e-02,  2.74700e-02,  1.76500e-02, -5.54600e-03, -3.80200e-03],
                           [-3.48600e+00,  1.04700e+00,  1.83300e-01,  4.14300e-02, -3.75200e-02, -1.20000e-02,  8.99300e-03,  3.04700e-03],
                           [-2.46100e+00,  2.13500e-01,  4.99700e-02,  4.58400e-02,  1.13300e-02, -9.06300e-03, -3.69800e-03,  1.64800e-03],
                           [-1.42300e+00, -7.70900e-02, -2.28400e-02,  8.02700e-03,  1.58900e-02,  1.65900e-03, -2.90400e-03, -9.08500e-04],
                           [-6.79900e-01, -5.55800e-02, -2.03900e-02, -1.68300e-02,  2.21200e-03,  4.27100e-03,  7.36200e-04, -8.52300e-04],
                           [-2.73100e-01,  4.43700e-03,  1.10900e-02, -1.33200e-02, -6.38400e-03,  7.20000e-04,  1.52500e-03,  2.03500e-04],
                           [-9.62700e-02,  1.22400e-02,  2.60600e-02,  1.90800e-03, -5.27000e-03, -2.14400e-03,  3.48200e-04,  5.55300e-04],
                           [-3.96900e-02, -1.18600e-02,  1.51900e-02,  9.33900e-03,  4.60200e-05, -1.70800e-03, -5.72900e-04,  1.62600e-04],
                           [-1.77600e-02, -3.23200e-02, -8.16100e-03,  6.52500e-03,  3.69800e-03,  5.67300e-05, -6.52000e-04, -1.37600e-04],
                           [-6.97100e-03, -2.19600e-02, -1.98800e-02, -2.96300e-03,  2.55300e-03,  1.64700e-03,  9.37700e-05, -2.97700e-04]])
#  gRO2(+M) <=> gQOOHa(+M)                             1.000e+00 0.000     0.000
#      TCHEB/ 180.000   1500.000 /
#      PCHEB/ 0.010     98.692   /
#      CHEB/ 10 8/
#      CHEB/ -2.355e+00   1.402e+00    -1.582e-01   1.027e-02    -4.125e-03  /
#      CHEB/ 3.619e-03    -3.627e-04   -2.939e-04   2.084e+00    1.431e+00   /
#      CHEB/ 1.017e-01    -6.234e-02   8.163e-03    2.309e-03    -1.541e-04  /
#      CHEB/ -1.980e-04   -2.676e+00   1.300e-01    1.521e-01    2.229e-02   /
#      CHEB/ -6.888e-03   -2.597e-03   9.967e-04    3.393e-04    -1.730e+00  /
#      CHEB/ -3.570e-01   2.467e-02    5.106e-02    2.197e-03    -3.885e-03  /
#      CHEB/ -1.187e-04   3.166e-04    -9.762e-01   -2.940e-01   -5.938e-02  /
#      CHEB/ 1.784e-02    7.436e-03    1.290e-03    -6.354e-04   -3.737e-04  /
#      CHEB/ -4.516e-01   -1.365e-01   -5.128e-02   -1.299e-02   2.359e-03   /
#      CHEB/ 3.131e-03    3.241e-04    -3.253e-04   -1.620e-01   -3.662e-02  /
#      CHEB/ -2.121e-02   -1.429e-02   -2.322e-03   4.833e-04    6.459e-04   /
#      CHEB/ 2.359e-04    -7.550e-02   1.817e-02    -1.495e-02   2.392e-04   /
#      CHEB/ -2.526e-03   -1.516e-03   2.045e-05    3.314e-04    1.720e-02   /
#      CHEB/ 3.815e-04    7.995e-04    8.318e-04    1.241e-03    -9.990e-04  /
#      CHEB/ -5.251e-04   1.410e-05    9.178e-03    7.661e-03    -5.037e-03  /
#      CHEB/ 6.725e-04    1.867e-03    4.549e-04    -2.995e-04   -2.360e-04  /
#  gQOOH[O](+M) <=> gQOOHa(+M)                         1.000e+00 0.000     0.000
#      TCHEB/ 180.000   1500.000 /
#      PCHEB/ 0.010     98.692   /
#      CHEB/ 10 8/
#      CHEB/ -1.780e+00   1.049e+00    -4.419e-01   -2.588e-02   2.370e-02   /
#      CHEB/ 3.879e-03    -3.126e-03   1.255e-04    -2.147e+00   1.979e+00   /
#      CHEB/ 2.586e-01    -7.928e-02   -1.891e-02   8.582e-03    3.424e-03   /
#      CHEB/ -1.402e-03   -3.742e+00   -2.427e-01   2.164e-01    8.234e-02   /
#      CHEB/ -1.144e-02   -9.631e-03   8.311e-04    1.145e-03    -2.271e+00  /
#      CHEB/ -5.894e-01   -4.489e-02   6.315e-02    2.032e-02    -3.396e-03  /
#      CHEB/ -3.584e-03   -1.308e-06   -1.061e+00   -3.159e-01   -1.170e-01  /
#      CHEB/ -1.992e-03   1.258e-02    5.118e-03    -6.432e-04   -9.241e-04  /
#      CHEB/ -3.969e-01   -5.187e-02   -5.515e-02   -2.678e-02   -4.503e-03  /
#      CHEB/ 2.995e-03    1.935e-03    6.772e-05    -1.107e-01   5.035e-02   /
#      CHEB/ 1.042e-02    -1.268e-02   -9.148e-03   -2.136e-03   1.166e-03   /
#      CHEB/ 7.756e-04    -3.243e-02   4.726e-02    1.912e-02    9.438e-03   /
#      CHEB/ -3.588e-03   -3.177e-03   -6.082e-04   3.710e-04    -1.108e-02  /
#      CHEB/ -7.675e-03   6.765e-03    9.304e-03    4.718e-03    -8.519e-04  /