units(length='cm', time='s', quantity='mol', act_energy='kcal/mol')

ideal_gas(name='gas',
          elements="H D T C Ci O Oi N Ne Ar He Si S F Cl Br I X",
          species="""OH             bQOOH[O]       acetone
                     H2O            balkoxyketone  ibutenol
                     trisub_epoxy   bQOOHg         CH2O
                     galkene        O2             bR
                     bQOOHa         bRO2           disub_epoxy
                     HO2""",
          reactions='all',
          initial_state=state(temperature=300.0, pressure=OneAtm))

#-------------------------------------------------------------------------------
# Element data
#-------------------------------------------------------------------------------

element(symbol='Ci', atomic_mass=13.003)
element(symbol='D', atomic_mass=2.014)
element(symbol='Oi', atomic_mass=18.0)
element(symbol='T', atomic_mass=3.016)
element(symbol='X', atomic_mass=195.083)
#-------------------------------------------------------------------------------
# Species data
#-------------------------------------------------------------------------------

species(name='OH',
        atoms='H:1 O:1',
        thermo=(NASA([10.00, 984.14],
                     [ 3.49686242E+00,  1.83973160E-04, -9.97634499E-07,
                       1.56942783E-09, -6.10128175E-13,  3.41673934E+03,
                       1.48093120E+00]),
                NASA([984.14, 3000.00],
                     [ 3.45221464E+00, -2.95124034E-04,  7.39418622E-07,
                      -2.89309866E-10,  3.53041498E-14,  3.45751599E+03,
                       1.85813897E+00])))

species(name='bQOOH[O]',
        atoms='C:4 H:9 O:3',
        thermo=(NASA([10.00, 338.69],
                     [ 3.60915854E+00,  3.39069566E-02,  2.22227265E-04,
                      -8.23527342E-07,  8.56246333E-10, -2.40563082E+04,
                       1.23284605E+01]),
                NASA([338.69, 3000.00],
                     [ 5.03198881E+00,  5.46235886E-02, -3.56935806E-05,
                       1.12371751E-08, -1.35390171E-12, -2.43678909E+04,
                       3.82760723E+00])))

species(name='acetone',
        atoms='C:3 H:6 O:1',
        thermo=(NASA([10.00, 414.35],
                     [ 3.73496166E+00,  3.05743218E-02, -1.26253585E-04,
                       3.66080978E-07, -3.31430437E-10, -2.97884722E+04,
                       8.24936012E+00]),
                NASA([414.35, 3000.00],
                     [ 1.70010292E-01,  3.28431468E-02, -1.80960132E-05,
                       4.82960690E-09, -5.02388538E-13, -2.92170891E+04,
                       2.56372653E+01])))

species(name='H2O',
        atoms='H:2 O:1',
        thermo=(NASA([10.00, 773.84],
                     [ 4.00473541E+00, -2.39729134E-04,  8.11862955E-07,
                       1.47891862E-09, -1.19783539E-12, -3.03533807E+04,
                      -9.96254147E-02]),
                NASA([773.84, 3000.00],
                     [ 3.52133374E+00,  1.05377009E-03,  6.40722099E-07,
                      -3.86240235E-10,  5.49243294E-14, -3.02424794E+04,
                       2.34173094E+00])))

species(name='balkoxyketone',
        atoms='C:4 H:7 O:2',
        thermo=(NASA([10.00, 269.93],
                     [ 3.81931151E+00,  1.68519318E-02,  2.42742224E-04,
                      -9.64821161E-07,  1.18509335E-09, -1.86768169E+04,
                       1.20521854E+01]),
                NASA([269.93, 3000.00],
                     [ 3.57555944E+00,  4.28868089E-02, -2.65390705E-05,
                       7.99659117E-09, -9.32983470E-13, -1.87453451E+04,
                       1.13957990E+01])))

species(name='ibutenol',
        atoms='C:4 H:8 O:1',
        thermo=(NASA([10.00, 135.97],
                     [ 3.95714996E+00,  5.72646980E-03,  4.63611760E-04,
                      -3.04137514E-06,  6.85019471E-09, -2.24214798E+04,
                       8.21931848E+00]),
                NASA([135.97, 3000.00],
                     [ 3.32467612E+00,  3.69033556E-02, -1.89960416E-05,
                       4.73417677E-09, -4.59705291E-13, -2.24159011E+04,
                       9.58133237E+00])))

species(name='trisub_epoxy',
        atoms='C:4 H:8 O:2',
        thermo=(NASA([10.00, 209.19],
                     [ 3.75295042E+00,  2.37546930E-02,  1.26610110E-04,
                      -4.78364365E-07,  5.79468168E-10, -3.96160701E+04,
                       1.12739684E+01]),
                NASA([209.19, 3000.00],
                     [ 2.64185254E+00,  4.50006531E-02, -2.57361066E-05,
                       7.15266054E-09, -7.72980731E-13, -3.95695845E+04,
                       1.48960343E+01])))

species(name='bQOOHg',
        atoms='C:4 H:9 O:3',
        thermo=(NASA([10.00, 441.09],
                     [ 3.56595280E+00,  3.36073467E-02,  2.03462772E-04,
                      -5.98977617E-07,  4.83271168E-10, -2.60471743E+04,
                       1.33537891E+01]),
                NASA([441.09, 3000.00],
                     [ 6.09031192E+00,  5.80517622E-02, -4.06392697E-05,
                       1.32574026E-08, -1.62501077E-12, -2.67303598E+04,
                      -1.97849715E+00])))

species(name='CH2O',
        atoms='C:1 H:2 O:1',
        thermo=(NASA([10.00, 601.31],
                     [ 4.03190845E+00, -1.93233367E-03,  8.89743345E-06,
                       2.98105926E-09, -7.90813886E-12, -1.42276270E+04,
                       3.47574660E+00]),
                NASA([601.31, 3000.00],
                     [ 1.40134195E+00,  9.48858016E-03, -4.43088317E-06,
                       9.48452194E-10, -7.43790219E-14, -1.38013869E+04,
                       1.57423780E+01])))

species(name='galkene',
        atoms='C:4 H:8 O:1',
        thermo=(NASA([10.00, 383.47],
                     [ 3.84035604E+00,  1.20378740E-02,  1.87486319E-04,
                      -5.44759148E-07,  4.80711015E-10, -2.04193070E+04,
                       1.02570291E+01]),
                NASA([383.47, 3000.00],
                     [ 4.00413385E+00,  3.79025144E-02, -2.15435710E-05,
                       6.15213311E-09, -6.97446345E-13, -2.06345963E+04,
                       6.98052628E+00])))

species(name='O2',
        atoms='O:2',
        thermo=(NASA([10.00, 605.96],
                     [ 3.50743498E+00, -4.43860349E-04,  1.45938058E-06,
                       1.61509333E-09, -2.32050052E-12, -9.24756224E+02,
                       4.72183634E+00]),
                NASA([605.96, 3000.00],
                     [ 2.87462882E+00,  2.17840991E-03, -1.18262921E-06,
                       2.86910493E-10, -2.53297146E-14, -8.19517838E+02,
                       7.69331810E+00])))

species(name='bR',
        atoms='C:4 H:9 O:1',
        thermo=(NASA([10.00, 483.43],
                     [ 3.38164846E+00,  5.97142637E-02, -1.58320095E-04,
                       3.04908893E-07, -2.13091806E-10, -1.30238735E+04,
                       1.09226843E+01]),
                NASA([483.43, 3000.00],
                     [ 2.33428824E+00,  4.22094427E-02, -2.28029290E-05,
                       6.04614564E-09, -6.30240159E-13, -1.26167916E+04,
                       1.83772893E+01])))

species(name='bQOOHa',
        atoms='C:4 H:9 O:3',
        thermo=(NASA([10.00, 390.53],
                     [ 3.54969236E+00,  3.76592474E-02,  1.76622653E-04,
                      -5.98063750E-07,  5.45069236E-10, -2.51984295E+04,
                       1.31518761E+01]),
                NASA([390.53, 3000.00],
                     [ 5.33564209E+00,  5.64935715E-02, -3.83214298E-05,
                       1.22990604E-08, -1.49549987E-12, -2.56210395E+04,
                       2.59015836E+00])))

species(name='bRO2',
        atoms='C:4 H:9 O:3',
        thermo=(NASA([10.00, 461.39],
                     [ 3.53964713E+00,  3.88723795E-02,  9.57420148E-05,
                      -2.80380499E-07,  2.09647462E-10, -3.45201057E+04,
                       1.18803618E+01]),
                NASA([461.39, 3000.00],
                     [ 3.47201723E+00,  6.00510247E-02, -4.00567321E-05,
                       1.25663813E-08, -1.49496682E-12, -3.47330525E+04,
                       9.77903975E+00])))

species(name='disub_epoxy',
        atoms='C:4 H:8 O:2',
        thermo=(NASA([10.00, 549.41],
                     [ 3.89863211E+00,  5.97532637E-03,  1.66685676E-04,
                      -3.10743768E-07,  1.78330192E-10, -3.92705880E+04,
                       1.13847308E+01]),
                NASA([549.41, 3000.00],
                     [-6.40277648E-01,  6.05960003E-02, -4.13427220E-05,
                       1.31555461E-08, -1.57685017E-12, -3.90974711E+04,
                       2.76005436E+01])))

species(name='HO2',
        atoms='H:1 O:2',
        thermo=(NASA([10.00, 891.11],
                     [ 4.02887004E+00, -1.75769289E-03,  1.08726004E-05,
                      -1.13812972E-08,  3.90113097E-12,  4.95165001E+02,
                       4.69302008E+00]),
                NASA([891.11, 3000.00],
                     [ 3.06571044E+00,  4.28505005E-03, -2.19325920E-06,
                       5.58882699E-10, -5.61246669E-14,  5.98557610E+02,
                       8.84564156E+00])))

#-------------------------------------------------------------------------------
# Reaction data
#-------------------------------------------------------------------------------

# Reaction 1
chebyshev_reaction('bQOOHg (+ M) <=> bRO2 (+ M)',
                   Tmin=180.0, Tmax=1500.0,
                   Pmin=(0.01, 'atm'), Pmax=(98.692, 'atm'),
                   coeffs=[[-7.81400e-01,  5.24100e-01, -3.22600e-03,  4.44200e-03,  3.34800e-04, -4.67200e-05,  8.15300e-05,  1.36300e-05],
                           [ 2.92800e+00,  9.10000e-01,  1.00400e-02,  7.52600e-03,  7.24700e-04, -3.25000e-05,  1.15400e-04,  1.54400e-05],
                           [-1.78600e+00,  5.66700e-01,  4.35200e-02,  5.52700e-03,  7.61000e-04,  9.27600e-05,  6.25900e-06, -1.41800e-05],
                           [-1.66700e+00,  1.82500e-01,  6.16900e-02,  6.15900e-03,  6.89000e-04,  1.54800e-04, -9.30800e-05, -4.47000e-05],
                           [-1.24800e+00, -9.28600e-02,  4.62700e-02,  9.05000e-03,  7.75100e-04,  7.97300e-05, -1.31900e-04, -5.41600e-05],
                           [-6.66500e-01, -2.01400e-01,  7.44400e-03,  1.00100e-02,  1.26700e-03, -4.43300e-05, -1.07100e-04, -3.04800e-05],
                           [-3.59500e-01, -1.78000e-01, -2.86200e-02,  5.76700e-03,  1.80000e-03, -2.55300e-05, -3.77300e-05,  1.55600e-05],
                           [ 7.37300e-03, -9.73300e-02, -4.26300e-02, -2.20100e-03,  1.57500e-03,  2.15000e-04,  6.74000e-05,  5.55500e-05],
                           [-4.17700e-02, -2.06500e-02, -3.36100e-02, -8.97200e-03,  2.62800e-04,  5.08900e-04,  1.95800e-04,  6.60800e-05],
                           [ 1.23500e-02,  2.44400e-02, -1.35500e-02, -1.05800e-02, -1.46500e-03,  5.73500e-04,  2.94300e-04,  4.64900e-05]])

# Reaction 2
chebyshev_reaction('bQOOHa (+ M) <=> bRO2 (+ M)',
                   Tmin=180.0, Tmax=1500.0,
                   Pmin=(0.01, 'atm'), Pmax=(98.692, 'atm'),
                   coeffs=[[-2.82300e+00,  2.41200e+00,  8.48500e-02, -4.95500e-03, -9.04800e-03, -3.72100e-04,  1.23000e-03,  1.27100e-04],
                           [-3.48900e+00, -6.25300e-02, -3.04200e-02,  4.75500e-02,  2.34900e-02,  1.10800e-03, -2.54600e-03, -5.14100e-04],
                           [-2.23200e+00,  1.48000e-01, -6.16100e-02, -4.01700e-02, -9.72200e-03,  1.56500e-03,  1.74500e-03,  2.93700e-04],
                           [-1.23200e+00,  1.22500e-01, -4.98400e-03, -9.17600e-03, -4.83900e-03, -1.01300e-03,  3.66300e-04,  3.18300e-04],
                           [-7.49800e-01,  5.89000e-02,  7.44200e-03,  1.70600e-03, -5.06400e-04, -6.51100e-04, -3.85100e-04, -5.24600e-05],
                           [-5.90800e-01,  5.58700e-02,  1.83400e-02,  5.24500e-03,  7.59900e-04, -8.26000e-04, -3.39600e-04, -1.96000e-05],
                           [-2.58300e-01, -2.37300e-02,  1.57200e-03,  1.09900e-03,  9.32200e-04,  5.32500e-04, -1.43400e-04, -2.02700e-04],
                           [-1.41500e-01, -2.01500e-02,  1.30100e-03, -1.65200e-04, -2.21300e-04, -7.17600e-06,  1.12600e-04,  6.31400e-05],
                           [-4.07000e-02, -3.59400e-02, -5.24100e-03,  5.39900e-05,  2.24900e-04,  1.43400e-04,  1.24300e-04,  7.12200e-06],
                           [-1.20000e-02, -1.80400e-02, -2.64600e-03, -7.62800e-04, -3.93600e-04, -9.81100e-05, -2.97400e-05,  5.32000e-05]])

# Reaction 3
chebyshev_reaction('bQOOH[O] (+ M) <=> bRO2 (+ M)',
                   Tmin=180.0, Tmax=1500.0,
                   Pmin=(0.01, 'atm'), Pmax=(98.692, 'atm'),
                   coeffs=[[ 4.99500e+00,  1.97400e+00, -3.18400e-02, -1.02200e-02, -2.08100e-03, -5.21700e-04, -2.32300e-04, -1.86800e-05],
                           [-5.65700e+00,  1.38200e-01,  3.11600e-02,  7.53300e-03,  1.32700e-03,  1.03500e-03,  7.02100e-04,  1.51100e-04],
                           [-2.78000e+00,  4.76100e-03, -2.74500e-02, -9.75200e-03, -2.11700e-03, -2.72400e-04,  1.92700e-05,  7.76600e-05],
                           [-1.31800e+00,  2.73300e-02, -7.09400e-03, -3.43800e-03, -7.91100e-04,  8.49100e-05,  1.18400e-04,  2.79000e-05],
                           [-7.43900e-01,  1.60200e-02, -2.39600e-03, -1.64800e-03, -4.31600e-04,  1.74800e-04,  2.23000e-04,  9.11800e-05],
                           [-3.86800e-01, -9.71800e-03, -7.22800e-03, -3.04800e-03, -6.78700e-04,  7.10100e-05,  1.10000e-04,  3.93500e-05],
                           [-1.88600e-01, -1.90000e-02, -4.92800e-03, -1.43800e-03, -3.62000e-04, -4.11600e-05,  6.11700e-05,  5.01700e-05],
                           [-1.22200e-01, -1.59200e-02, -2.14300e-03, -9.27700e-04, -2.95500e-04,  7.36200e-05,  8.77800e-05,  1.68400e-05],
                           [-6.75100e-02, -2.78000e-02, -6.98300e-03, -1.33500e-03, -1.64000e-04, -5.08400e-05, -2.42200e-06,  2.92400e-05],
                           [-8.28200e-02, -7.69000e-03, -5.27200e-04, -1.98600e-04, -1.78600e-04,  2.02300e-05,  4.66900e-05,  2.72300e-06]])

# Reaction 4
chebyshev_reaction('O2 + bR (+ M) <=> bRO2 (+ M)',
                   Tmin=180.0, Tmax=1500.0,
                   Pmin=(0.01, 'atm'), Pmax=(98.692, 'atm'),
                   coeffs=[[ 1.33600e+01,  5.41600e-01, -4.49700e-02,  3.09000e-03, -5.48700e-04,  7.64000e-05, -6.52800e-06, -2.60800e-07],
                           [-1.90300e+00,  8.84600e-01, -3.94000e-02, -3.31200e-03,  5.50200e-04, -7.80400e-05, -2.19100e-06,  4.54400e-06],
                           [-1.34800e+00,  5.04300e-01,  2.55500e-02, -6.67300e-03, -1.54400e-04,  1.36800e-04, -2.35800e-05, -1.03200e-06],
                           [-9.22300e-01,  1.95200e-01,  4.26300e-02,  5.42900e-05, -1.08500e-03,  1.78600e-05,  2.87200e-05, -5.90200e-06],
                           [-5.81500e-01,  3.06100e-02,  2.64900e-02,  4.98300e-03, -2.87900e-04, -2.10800e-04,  1.17000e-05,  6.04000e-06],
                           [-3.47200e-01, -3.11600e-02,  7.81400e-03,  4.28000e-03,  7.02900e-04, -1.09900e-04, -3.96400e-05,  3.35100e-06],
                           [-1.95800e-01, -4.44600e-02, -1.87900e-03,  1.60100e-03,  7.52600e-04,  9.54900e-05, -2.57700e-05, -8.08500e-06],
                           [-1.01000e-01, -3.99600e-02, -4.99600e-03, -7.49500e-05,  2.95500e-04,  1.32100e-04,  1.84000e-05, -5.80900e-06],
                           [-4.36500e-02, -3.00400e-02, -5.52100e-03, -6.14800e-04, -1.48100e-05,  5.10800e-05,  2.89000e-05,  4.16500e-06],
                           [-1.09300e-02, -1.90500e-02, -5.25200e-03, -7.40200e-04, -8.26800e-05, -4.54300e-06,  1.15300e-05,  6.73600e-06]])
#  bRO2(+M) <=> bQOOHg(+M)                             1.000e+00 0.000     0.000
#      TCHEB/ 180.000   1500.000 /
#      PCHEB/ 0.010     98.692   /
#      CHEB/ 10 8/
#      CHEB/ -1.128e+01   5.241e-01    -3.226e-03   4.442e-03    3.348e-04   /
#      CHEB/ -4.672e-05   8.153e-05    1.363e-05    1.232e+01    9.100e-01   /
#      CHEB/ 1.004e-02    7.526e-03    7.247e-04    -3.250e-05   1.154e-04   /
#      CHEB/ 1.544e-05    -1.640e+00   5.667e-01    4.352e-02    5.527e-03   /
#      CHEB/ 7.610e-04    9.276e-05    6.259e-06    -1.418e-05   -1.630e+00  /
#      CHEB/ 1.825e-01    6.169e-02    6.159e-03    6.890e-04    1.548e-04   /
#      CHEB/ -9.308e-05   -4.470e-05   -1.242e+00   -9.286e-02   4.627e-02   /
#      CHEB/ 9.050e-03    7.751e-04    7.973e-05    -1.319e-04   -5.416e-05  /
#      CHEB/ -6.666e-01   -2.014e-01   7.444e-03    1.001e-02    1.267e-03   /
#      CHEB/ -4.433e-05   -1.071e-04   -3.048e-05   -3.601e-01   -1.780e-01  /
#      CHEB/ -2.862e-02   5.767e-03    1.800e-03    -2.553e-05   -3.773e-05  /
#      CHEB/ 1.556e-05    6.921e-03    -9.733e-02   -4.263e-02   -2.201e-03  /
#      CHEB/ 1.575e-03    2.150e-04    6.740e-05    5.555e-05    -4.209e-02  /
#      CHEB/ -2.065e-02   -3.361e-02   -8.972e-03   2.628e-04    5.089e-04   /
#      CHEB/ 1.958e-04    6.608e-05    1.217e-02    2.444e-02    -1.355e-02  /
#      CHEB/ -1.058e-02   -1.465e-03   5.735e-04    2.943e-04    4.649e-05   /

# Reaction 5
chebyshev_reaction('bQOOHa (+ M) <=> bQOOHg (+ M)',
                   Tmin=180.0, Tmax=1500.0,
                   Pmin=(0.01, 'atm'), Pmax=(98.692, 'atm'),
                   coeffs=[[-1.47700e+01,  1.41800e+00,  3.30800e-01,  8.30200e-02, -6.86900e-03, -1.24100e-02, -3.99000e-03, -3.33500e-05],
                           [ 2.28500e+00,  2.80500e-01, -3.18500e-01, -1.08300e-02,  3.95000e-02,  2.08000e-02,  4.10600e-03, -1.11300e-03],
                           [-2.20100e+00,  6.35200e-01, -7.10200e-02, -6.87300e-02, -2.63900e-02, -3.89300e-03,  2.07300e-03,  1.62200e-03],
                           [-1.96000e+00,  3.07700e-01,  7.57900e-02,  4.70900e-04, -6.01300e-03, -3.71700e-03, -1.10100e-03,  3.58200e-05],
                           [-1.23200e+00, -2.44300e-02,  6.88700e-02,  1.87900e-02,  2.93300e-03, -6.13800e-04, -1.16300e-03, -5.07600e-04],
                           [-6.68200e-01, -1.55700e-01,  8.45500e-03,  1.38400e-02,  3.75700e-03,  5.09200e-04, -1.04900e-04, -1.38200e-04],
                           [-2.87500e-01, -1.47900e-01, -2.68700e-02,  7.06000e-03,  2.00600e-03,  2.48100e-04, -3.29800e-05, -2.87400e-05],
                           [-1.68300e-02, -8.82200e-02, -5.24400e-02, -5.73900e-03,  2.10400e-03,  1.10200e-03,  5.60800e-04,  1.84600e-04],
                           [-9.34700e-03,  3.42500e-03, -2.64100e-02, -7.53900e-03,  1.30300e-04,  6.78600e-05,  6.22800e-05,  6.33500e-05],
                           [ 3.40400e-02,  3.64500e-02, -9.13100e-03, -1.07900e-02, -1.74800e-03,  4.28800e-04,  1.35800e-04,  3.94800e-05]])

# Reaction 6
chebyshev_reaction('bQOOH[O] (+ M) <=> bQOOHg (+ M)',
                   Tmin=180.0, Tmax=1500.0,
                   Pmin=(0.01, 'atm'), Pmax=(98.692, 'atm'),
                   coeffs=[[-7.89700e+00,  1.21400e+00,  3.16800e-01,  7.14400e-02, -2.14000e-02, -2.22600e-02, -7.05200e-03,  4.75200e-04],
                           [ 2.02400e-01,  3.57600e-01, -2.20700e-01,  5.11000e-03,  4.97700e-02,  2.75800e-02,  5.05900e-03, -3.23300e-03],
                           [-2.19900e+00,  4.06300e-01, -8.25800e-02, -5.44400e-02, -1.82900e-02, -8.03800e-04,  3.34400e-03,  2.69900e-03],
                           [-1.82200e+00,  1.65500e-01,  2.01200e-02, -2.38900e-02, -1.49900e-02, -3.84500e-03,  7.61800e-04,  1.32900e-03],
                           [-1.33100e+00, -4.65500e-02,  6.00800e-02,  1.31900e-02, -1.16600e-03, -2.58000e-03, -1.69600e-03, -6.00300e-04],
                           [-6.32300e-01, -1.76700e-01,  2.10000e-02,  2.10200e-02,  4.93300e-03, -2.81500e-04, -1.10100e-03, -7.83000e-04],
                           [-3.06600e-01, -1.36300e-01, -1.14900e-02,  1.42700e-02,  4.68100e-03, -1.48700e-05, -8.80300e-04, -4.73800e-04],
                           [ 1.66300e-02, -1.13200e-01, -5.47200e-02, -4.84300e-03,  2.85100e-03,  2.49500e-03,  1.73700e-03,  5.64000e-04],
                           [-3.97100e-02, -1.09600e-02, -3.17600e-02, -7.94900e-03,  5.45200e-04,  2.55500e-04, -5.87200e-05,  1.16000e-04],
                           [-3.86700e-02,  3.23000e-02, -9.30100e-03, -8.35200e-03, -1.37600e-03,  3.69300e-05,  6.77700e-05,  8.84800e-05]])

# Reaction 7
chebyshev_reaction('O2 + bR (+ M) <=> bQOOHg (+ M)',
                   Tmin=180.0, Tmax=1500.0,
                   Pmin=(0.01, 'atm'), Pmax=(98.692, 'atm'),
                   coeffs=[[ 6.72900e+00, -5.97100e-01, -1.40800e-01,  1.61000e-02, -3.28600e-03,  4.63900e-04,  8.52700e-05, -6.49500e-06],
                           [-9.92000e-01,  2.04900e+00, -5.95800e-02, -2.09300e-02,  5.09300e-03, -1.00900e-03,  2.34000e-04,  4.65800e-05],
                           [-1.65500e+00,  8.86100e-01,  1.26300e-01, -2.35700e-02, -4.18400e-04,  8.05200e-04, -2.10100e-04,  3.77400e-05],
                           [-1.34200e+00,  1.42300e-01,  1.21900e-01,  5.98800e-03, -4.43300e-03,  4.25000e-04, -3.36000e-05, -6.91400e-05],
                           [-8.11300e-01, -1.37200e-01,  4.63200e-02,  1.88700e-02, -1.43800e-03, -6.53900e-04, -8.02000e-06, -5.61200e-05],
                           [-3.96300e-01, -1.72600e-01, -1.01600e-02,  1.41800e-02,  1.79000e-03, -7.95700e-04, -1.56200e-04,  4.85600e-06],
                           [-1.44900e-01, -1.20500e-01, -3.45900e-02,  4.80200e-03,  2.79000e-03, -3.50700e-04, -2.26000e-04,  3.36000e-05],
                           [-1.28400e-02, -4.97600e-02, -3.70000e-02, -3.49600e-03,  2.15100e-03,  2.68600e-04, -1.19800e-04,  1.65100e-05],
                           [ 3.49800e-02,  7.61700e-03, -2.51800e-02, -8.86400e-03,  5.13900e-04,  7.35600e-04,  1.29900e-04, -4.37800e-06],
                           [ 3.78900e-02,  3.84500e-02, -7.43900e-03, -9.57900e-03, -1.35500e-03,  7.70300e-04,  3.49000e-04,  2.52300e-06]])
#  bRO2(+M) <=> bQOOHa(+M)                             1.000e+00 0.000     0.000
#      TCHEB/ 180.000   1500.000 /
#      PCHEB/ 0.010     98.692   /
#      CHEB/ 10 8/
#      CHEB/ -1.457e+01   2.412e+00    8.485e-02    -4.955e-03   -9.048e-03  /
#      CHEB/ -3.721e-04   1.230e-03    1.271e-04    6.653e+00    -6.253e-02  /
#      CHEB/ -3.042e-02   4.755e-02    2.349e-02    1.108e-03    -2.546e-03  /
#      CHEB/ -5.141e-04   -2.177e+00   1.480e-01    -6.161e-02   -4.017e-02  /
#      CHEB/ -9.722e-03   1.565e-03    1.745e-03    2.937e-04    -1.231e+00  /
#      CHEB/ 1.225e-01    -4.984e-03   -9.176e-03   -4.839e-03   -1.013e-03  /
#      CHEB/ 3.663e-04    3.183e-04    -7.546e-01   5.890e-02    7.442e-03   /
#      CHEB/ 1.706e-03    -5.064e-04   -6.511e-04   -3.851e-04   -5.246e-05  /
#      CHEB/ -5.936e-01   5.587e-02    1.834e-02    5.245e-03    7.599e-04   /
#      CHEB/ -8.260e-04   -3.396e-04   -1.960e-05   -2.596e-01   -2.373e-02  /
#      CHEB/ 1.572e-03    1.099e-03    9.322e-04    5.325e-04    -1.434e-04  /
#      CHEB/ -2.027e-04   -1.423e-01   -2.015e-02   1.301e-03    -1.652e-04  /
#      CHEB/ -2.213e-04   -7.176e-06   1.126e-04    6.314e-05    -4.105e-02  /
#      CHEB/ -3.594e-02   -5.241e-03   5.399e-05    2.249e-04    1.434e-04   /
#      CHEB/ 1.243e-04    7.122e-06    -1.212e-02   -1.804e-02   -2.646e-03  /
#      CHEB/ -7.628e-04   -3.936e-04   -9.811e-05   -2.974e-05   5.320e-05   /
#  bQOOHg(+M) <=> bQOOHa(+M)                           1.000e+00 0.000     0.000
#      TCHEB/ 180.000   1500.000 /
#      PCHEB/ 0.010     98.692   /
#      CHEB/ 10 8/
#      CHEB/ -1.602e+01   1.418e+00    3.308e-01    8.302e-02    -6.869e-03  /
#      CHEB/ -1.241e-02   -3.990e-03   -3.335e-05   3.038e+00    2.805e-01   /
#      CHEB/ -3.185e-01   -1.083e-02   3.950e-02    2.080e-02    4.106e-03   /
#      CHEB/ -1.113e-03   -2.292e+00   6.352e-01    -7.102e-02   -6.873e-02  /
#      CHEB/ -2.639e-02   -3.893e-03   2.073e-03    1.622e-03    -1.996e+00  /
#      CHEB/ 3.077e-01    7.579e-02    4.709e-04    -6.013e-03   -3.717e-03  /
#      CHEB/ -1.101e-03   3.582e-05    -1.243e+00   -2.443e-02   6.887e-02   /
#      CHEB/ 1.879e-02    2.933e-03    -6.138e-04   -1.163e-03   -5.076e-04  /
#      CHEB/ -6.708e-01   -1.557e-01   8.455e-03    1.384e-02    3.757e-03   /
#      CHEB/ 5.092e-04    -1.049e-04   -1.382e-04   -2.883e-01   -1.479e-01  /
#      CHEB/ -2.687e-02   7.060e-03    2.006e-03    2.481e-04    -3.298e-05  /
#      CHEB/ -2.874e-05   -1.710e-02   -8.822e-02   -5.244e-02   -5.739e-03  /
#      CHEB/ 2.104e-03    1.102e-03    5.608e-04    1.846e-04    -9.372e-03  /
#      CHEB/ 3.425e-03    -2.641e-02   -7.539e-03   1.303e-04    6.786e-05   /
#      CHEB/ 6.228e-05    6.335e-05    3.410e-02    3.645e-02    -9.131e-03  /
#      CHEB/ -1.079e-02   -1.748e-03   4.288e-04    1.358e-04    3.948e-05   /

# Reaction 8
chebyshev_reaction('bQOOH[O] (+ M) <=> bQOOHa (+ M)',
                   Tmin=180.0, Tmax=1500.0,
                   Pmin=(0.01, 'atm'), Pmax=(98.692, 'atm'),
                   coeffs=[[-1.15500e+01,  2.80900e+00,  2.86200e-01,  5.64700e-02, -6.41200e-03, -7.79400e-03, -2.88600e-03, -9.93800e-04],
                           [-5.06400e+00, -2.98500e-01, -1.54200e-01,  1.99000e-02,  2.86400e-02,  8.29600e-03,  6.77800e-04,  2.80300e-04],
                           [-2.74800e+00, -6.52900e-02, -1.91900e-01, -8.72400e-02, -1.93500e-02,  1.88500e-03,  2.82000e-03,  8.59600e-04],
                           [-1.45600e+00,  1.33800e-01, -1.53300e-02, -1.66000e-02, -7.67900e-03, -1.07500e-03,  5.97200e-04,  2.18800e-04],
                           [-8.55600e-01,  1.07000e-01,  2.40300e-02,  6.04200e-03, -1.00900e-03, -1.24600e-03, -4.26200e-04, -1.34100e-05],
                           [-5.50800e-01,  6.14200e-02,  1.87300e-02,  7.05800e-03,  8.26400e-04, -1.43700e-03, -6.10200e-04,  1.10700e-05],
                           [-2.23600e-01, -9.18900e-03,  4.01600e-03,  1.59400e-03,  7.77800e-04,  3.18700e-04, -2.86600e-04, -2.09300e-04],
                           [-1.18900e-01, -1.70300e-02,  1.40600e-03,  1.11800e-03,  6.42300e-04,  3.07800e-04,  1.57800e-04,  3.40800e-05],
                           [-4.95300e-02, -3.79600e-02, -7.90500e-03, -3.38200e-04,  4.94500e-04,  3.49200e-04,  1.74700e-04, -1.02600e-05],
                           [-6.14500e-02, -1.35900e-02, -1.08900e-03,  4.24300e-05, -1.62400e-04, -5.27000e-05, -6.87200e-07,  5.91700e-05]])

# Reaction 9
chebyshev_reaction('O2 + bR (+ M) <=> bQOOHa (+ M)',
                   Tmin=180.0, Tmax=1500.0,
                   Pmin=(0.01, 'atm'), Pmax=(98.692, 'atm'),
                   coeffs=[[-1.31700e+00,  1.68900e+00,  5.30900e-01,  1.84000e-01,  2.21800e-02, -9.95300e-03, -7.13300e-03, -2.31800e-03],
                           [-2.12700e+00, -3.68700e-01, -6.32800e-01, -1.55800e-01,  8.60300e-04,  1.85000e-02,  8.70500e-03,  2.28100e-03],
                           [-1.87200e+00,  5.31900e-01, -1.59400e-02, -5.45800e-02, -2.16400e-02, -4.18200e-03,  4.72500e-04,  3.87900e-04],
                           [-1.03900e+00,  2.88000e-01,  9.84100e-02,  1.14000e-02, -5.83400e-03, -4.83400e-03, -1.48700e-03,  8.24400e-05],
                           [-4.69400e-01,  1.88600e-02,  3.99800e-02,  1.31200e-02,  2.27600e-03, -2.86800e-04, -7.24000e-04, -3.49500e-04],
                           [-3.33600e-01, -2.92600e-02,  1.07100e-02,  7.58800e-03,  3.30200e-03,  7.66300e-04,  7.15200e-05, -1.59300e-04],
                           [-1.28400e-01, -5.50100e-02, -2.43000e-03,  2.06800e-03,  9.36500e-04,  5.24900e-04,  1.77100e-04,  4.72100e-05],
                           [-5.70100e-02, -3.27800e-02, -4.48900e-03,  4.79600e-04,  6.58900e-04,  2.04000e-04,  4.77200e-05,  5.53700e-05],
                           [-1.21500e-02, -2.74600e-02, -6.51100e-03, -3.15200e-04,  1.49500e-04,  1.80600e-04,  1.34000e-04, -6.66500e-07],
                           [ 1.01200e-02, -1.45300e-02, -5.36800e-03, -1.30800e-03, -2.07400e-04,  2.66100e-05, -1.92900e-05,  1.76200e-05]])
#  bRO2(+M) <=> bQOOH[O](+M)                           1.000e+00 0.000     0.000
#      TCHEB/ 180.000   1500.000 /
#      PCHEB/ 0.010     98.692   /
#      CHEB/ 10 8/
#      CHEB/ -8.704e+00   1.974e+00    -3.184e-02   -1.022e-02   -2.081e-03  /
#      CHEB/ -5.217e-04   -2.323e-04   -1.868e-05   5.574e+00    1.382e-01   /
#      CHEB/ 3.116e-02    7.533e-03    1.327e-03    1.035e-03    7.021e-04   /
#      CHEB/ 1.511e-04    -2.785e+00   4.761e-03    -2.745e-02   -9.752e-03  /
#      CHEB/ -2.117e-03   -2.724e-04   1.927e-05    7.766e-05    -1.339e+00  /
#      CHEB/ 2.733e-02    -7.094e-03   -3.438e-03   -7.911e-04   8.491e-05   /
#      CHEB/ 1.184e-04    2.790e-05    -7.547e-01   1.602e-02    -2.396e-03  /
#      CHEB/ -1.648e-03   -4.316e-04   1.748e-04    2.230e-04    9.118e-05   /
#      CHEB/ -3.907e-01   -9.718e-03   -7.228e-03   -3.048e-03   -6.787e-04  /
#      CHEB/ 7.101e-05    1.100e-04    3.935e-05    -1.902e-01   -1.900e-02  /
#      CHEB/ -4.928e-03   -1.438e-03   -3.620e-04   -4.116e-05   6.117e-05   /
#      CHEB/ 5.017e-05    -1.228e-01   -1.592e-02   -2.143e-03   -9.277e-04  /
#      CHEB/ -2.955e-04   7.362e-05    8.778e-05    1.684e-05    -6.769e-02  /
#      CHEB/ -2.780e-02   -6.983e-03   -1.335e-03   -1.640e-04   -5.084e-05  /
#      CHEB/ -2.422e-06   2.924e-05    -8.281e-02   -7.690e-03   -5.272e-04  /
#      CHEB/ -1.986e-04   -1.786e-04   2.023e-05    4.669e-05    2.723e-06   /
#  bQOOHg(+M) <=> bQOOH[O](+M)                         1.000e+00 0.000     0.000
#      TCHEB/ 180.000   1500.000 /
#      PCHEB/ 0.010     98.692   /
#      CHEB/ 10 8/
#      CHEB/ -1.110e+01   1.214e+00    3.168e-01    7.144e-02    -2.140e-02  /
#      CHEB/ -2.226e-02   -7.052e-03   4.752e-04    2.045e+00    3.576e-01   /
#      CHEB/ -2.207e-01   5.110e-03    4.977e-02    2.758e-02    5.059e-03   /
#      CHEB/ -3.233e-03   -2.351e+00   4.063e-01    -8.258e-02   -5.444e-02  /
#      CHEB/ -1.829e-02   -8.038e-04   3.344e-03    2.699e-03    -1.881e+00  /