units(length='cm', time='s', quantity='mol', act_energy='kcal/mol')

ideal_gas(name='gas',
          elements="H D T C Ci O Oi N Ne Ar He Si S F Cl Br I X",
          species="""aOOHbalkene      OH               ibutanal
                     aR               performic_acid   disub_c4ether
                     aQOOHb           H                aadduct
                     trisub_epoxy     ibutenol         aQOOH[O]
                     ipropyl          aRO2             O2
                     formic_acid      propene          aQOOHg
                     ibut_peroxyacid  HO2              CH3""",
          reactions='all',
          initial_state=state(temperature=300.0, pressure=OneAtm))

#-------------------------------------------------------------------------------
# Element data
#-------------------------------------------------------------------------------

element(symbol='Ci', atomic_mass=13.003)
element(symbol='D', atomic_mass=2.014)
element(symbol='Oi', atomic_mass=18.0)
element(symbol='T', atomic_mass=3.016)
element(symbol='X', atomic_mass=195.083)
#-------------------------------------------------------------------------------
# Species data
#-------------------------------------------------------------------------------

species(name='aOOHbalkene',
        atoms='C:3 H:6 O:3',
        thermo=(NASA([10.00, 497.41],
                     [ 3.76691735E+00,  1.51417956E-02,  1.85499431E-04,
                      -4.61303214E-07,  3.27678941E-10, -3.01497082E+04,
                       1.09903968E+01]),
                NASA([497.41, 3000.00],
                     [ 6.20882781E+00,  4.08866173E-02, -2.89934946E-05,
                       9.60428979E-09, -1.19355432E-12, -3.09540375E+04,
                      -4.72842811E+00])))

species(name='OH',
        atoms='H:1 O:1',
        thermo=(NASA([10.00, 984.14],
                     [ 3.49686242E+00,  1.83973160E-04, -9.97634499E-07,
                       1.56942783E-09, -6.10128175E-13,  3.41673934E+03,
                       1.48093120E+00]),
                NASA([984.14, 3000.00],
                     [ 3.45221464E+00, -2.95124034E-04,  7.39418622E-07,
                      -2.89309866E-10,  3.53041498E-14,  3.45751599E+03,
                       1.85813897E+00])))

species(name='ibutanal',
        atoms='C:4 H:8 O:1',
        thermo=(NASA([10.00, 683.88],
                     [ 3.57157346E+00,  3.36936906E-02, -1.78475021E-05,
                       1.31946716E-08, -7.58008388E-12, -2.65789613E+04,
                       1.05595084E+01]),
                NASA([683.88, 3000.00],
                     [ 1.29043622E+00,  4.14804229E-02, -2.27411206E-05,
                       6.08619500E-09, -6.38995128E-13, -2.61370422E+04,
                       2.16477430E+01])))

species(name='aR',
        atoms='C:4 H:9 O:1',
        thermo=(NASA([10.00, 455.22],
                     [ 3.59625500E+00,  3.38947981E-02,  7.37257079E-06,
                      -3.99275335E-08,  2.49019944E-11, -1.46343710E+04,
                       1.18269265E+01]),
                NASA([455.22, 3000.00],
                     [ 2.49586309E+00,  4.35639890E-02, -2.44887770E-05,
                       6.73363769E-09, -7.23862433E-13, -1.45341879E+04,
                       1.62696907E+01])))

species(name='performic_acid',
        atoms='C:1 H:2 O:3',
        thermo=(NASA([10.00, 590.95],
                     [ 3.92633851E+00,  4.24517168E-03,  6.71106764E-05,
                      -1.36545385E-07,  8.03337864E-11, -3.63028176E+04,
                       8.06485813E+00]),
                NASA([590.95, 3000.00],
                     [ 4.39992934E+00,  1.85411415E-02, -1.36005501E-05,
                       4.62292431E-09, -5.88463603E-13, -3.66643888E+04,
                       3.44353230E+00])))

species(name='disub_c4ether',
        atoms='C:4 H:8 O:2',
        thermo=(NASA([10.00, 413.50],
                     [ 3.78241323E+00,  1.89501763E-02,  8.65302396E-05,
                      -1.80580575E-07,  1.13656264E-10, -3.80432105E+04,
                       1.09982450E+01]),
                NASA([413.50, 3000.00],
                     [ 4.29420885E-01,  5.13851903E-02, -3.11292293E-05,
                       9.11498284E-09, -1.03192718E-12, -3.77659162E+04,
                       2.42134976E+01])))

species(name='aQOOHb',
        atoms='C:4 H:9 O:3',
        thermo=(NASA([10.00, 412.78],
                     [ 3.15498836E+00,  8.55068303E-02, -2.35307993E-04,
                       4.71983261E-07, -3.62709267E-10, -2.95627023E+04,
                       1.52522123E+01]),
                NASA([412.78, 3000.00],
                     [ 4.18099845E+00,  5.26168288E-02, -3.23998410E-05,
                       9.59389339E-09, -1.09464519E-12, -2.94519074E+04,
                       1.35782328E+01])))

species(name='H',
        atoms='H:1',
        thermo=(NASA([10.00, 794.01],
                     [ 2.50000000E+00,  1.99051163E-15, -1.19089508E-17,
                       2.10805655E-20, -1.11017699E-23,  2.54725594E+04,
                      -4.61279342E-01]),
                NASA([794.01, 3000.00],
                     [ 2.50000000E+00,  1.52667235E-14, -1.58445285E-17,
                       6.63088600E-21, -9.62111674E-25,  2.54725594E+04,
                      -4.61279342E-01])))

species(name='aadduct',
        atoms='C:4 H:9 O:3',
        thermo=(NASA([10.00, 449.84],
                     [ 3.06901904E+00,  9.20724491E-02, -2.68085092E-04,
                       5.15249897E-07, -3.68046586E-10, -3.03280151E+04,
                       1.46591735E+01]),
                NASA([449.84, 3000.00],
                     [ 4.11210745E+00,  5.16955724E-02, -2.97401041E-05,
                       8.32758939E-09, -9.08861448E-13, -3.01071742E+04,
                       1.39578825E+01])))

species(name='trisub_epoxy',
        atoms='C:4 H:8 O:2',
        thermo=(NASA([10.00, 209.19],
                     [ 3.75295042E+00,  2.37546930E-02,  1.26610110E-04,
                      -4.78364365E-07,  5.79468168E-10, -4.18853820E+04,
                       1.12739684E+01]),
                NASA([209.19, 3000.00],
                     [ 2.64185254E+00,  4.50006531E-02, -2.57361066E-05,
                       7.15266054E-09, -7.72980731E-13, -4.18388965E+04,
                       1.48960343E+01])))

species(name='ibutenol',
        atoms='C:4 H:8 O:1',
        thermo=(NASA([10.00, 135.97],
                     [ 3.95714996E+00,  5.72646980E-03,  4.63611760E-04,
                      -3.04137514E-06,  6.85019471E-09, -2.33018535E+04,
                       8.21931848E+00]),
                NASA([135.97, 3000.00],
                     [ 3.32467612E+00,  3.69033556E-02, -1.89960416E-05,
                       4.73417677E-09, -4.59705291E-13, -2.32962748E+04,
                       9.58133237E+00])))

species(name='aQOOH[O]',
        atoms='C:4 H:9 O:3',
        thermo=(NASA([10.00, 488.36],
                     [ 3.54559533E+00,  3.89536133E-02,  8.47689703E-05,
                      -2.45147486E-07,  1.76157259E-10, -2.49987803E+04,
                       1.34685910E+01]),
                NASA([488.36, 3000.00],
                     [ 3.94214913E+00,  5.71928314E-02, -3.72516212E-05,
                       1.15209013E-08, -1.35808341E-12, -2.52937412E+04,
                       9.21628964E+00])))

species(name='ipropyl',
        atoms='C:3 H:7',
        thermo=(NASA([10.00, 421.76],
                     [ 3.73943775E+00,  3.10070157E-02, -1.51196908E-04,
                       4.35367329E-07, -3.85565052E-10,  9.49213457E+03,
                       7.79448918E+00]),
                NASA([421.76, 3000.00],
                     [-4.74526725E-01,  3.20862468E-02, -1.67340747E-05,
                       4.21365136E-09, -4.13155573E-13,  1.01934458E+04,
                       2.85865912E+01])))

species(name='aRO2',
        atoms='C:4 H:9 O:3',
        thermo=(NASA([10.00, 670.36],
                     [ 3.45405325E+00,  4.74751311E-02,  9.77507759E-06,
                      -6.31019603E-08,  3.75500067E-11, -3.53973902E+04,
                       1.39284976E+01]),
                NASA([670.36, 3000.00],
                     [ 5.04137652E+00,  5.19952978E-02, -3.16472789E-05,
                       9.22798587E-09, -1.03598915E-12, -3.59245828E+04,
                       4.56056770E+00])))

species(name='O2',
        atoms='O:2',
        thermo=(NASA([10.00, 605.96],
                     [ 3.50743498E+00, -4.43860349E-04,  1.45938058E-06,
                       1.61509333E-09, -2.32050052E-12, -9.24756224E+02,
                       4.72183634E+00]),
                NASA([605.96, 3000.00],
                     [ 2.87462882E+00,  2.17840991E-03, -1.18262921E-06,
                       2.86910493E-10, -2.53297146E-14, -8.19517838E+02,
                       7.69331810E+00])))

species(name='formic_acid',
        atoms='C:1 H:2 O:2',
        thermo=(NASA([10.00, 741.38],
                     [ 4.06855785E+00, -4.74562133E-03,  4.71797900E-05,
                      -6.07490052E-08,  2.51286794E-11, -4.66880837E+04,
                       6.53681035E+00]),
                NASA([741.38, 3000.00],
                     [ 1.13645847E+00,  1.74953124E-02, -1.08112403E-05,
                       3.08075326E-09, -3.34892658E-13, -4.64297918E+04,
                       1.86149484E+01])))

species(name='propene',
        atoms='C:3 H:6',
        thermo=(NASA([10.00, 519.53],
                     [ 3.98723879E+00,  4.72040503E-04,  6.51776229E-05,
                      -9.89891002E-08,  4.91141123E-11,  2.13441614E+03,
                       6.98071210E+00]),
                NASA([519.53, 3000.00],
                     [ 3.79893331E-01,  2.82457690E-02, -1.50108430E-05,
                       3.90894069E-09, -4.00521928E-13,  2.50924348E+03,
                       2.20218922E+01])))

species(name='aQOOHg',
        atoms='C:4 H:9 O:3',
        thermo=(NASA([10.00, 455.48],
                     [ 3.62522127E+00,  2.83222320E-02,  2.08527447E-04,
                      -5.67427418E-07,  4.35169138E-10, -2.35363291E+04,
                       1.26617758E+01]),
                NASA([455.48, 3000.00],
                     [ 5.13914202E+00,  5.96270859E-02, -4.14435328E-05,
                       1.34202375E-08, -1.63474553E-12, -2.41368855E+04,
                       1.46991116E+00])))

species(name='ibut_peroxyacid',
        atoms='C:4 H:8 O:3',
        thermo=(NASA([10.00, 1386.21],
                     [ 3.50995385E+00,  4.78670384E-02, -2.40781384E-05,
                       3.71046938E-09,  3.85442115E-13, -4.70548133E+04,
                       1.22017268E+01]),
                NASA([1386.21, 3000.00],
                     [ 1.24543146E+01,  3.02396862E-02, -1.38577031E-05,
                       3.05328904E-09, -2.63982457E-13, -5.03206966E+04,
                      -3.67061828E+01])))

species(name='HO2',
        atoms='H:1 O:2',
        thermo=(NASA([10.00, 891.11],
                     [ 4.02887004E+00, -1.75769289E-03,  1.08726004E-05,
                      -1.13812972E-08,  3.90113097E-12,  4.95165001E+02,
                       4.69302008E+00]),
                NASA([891.11, 3000.00],
                     [ 3.06571044E+00,  4.28505005E-03, -2.19325920E-06,
                       5.58882699E-10, -5.61246669E-14,  5.98557610E+02,
                       8.84564156E+00])))

species(name='CH3',
        atoms='C:1 H:3',
        thermo=(NASA([10.00, 616.77],
                     [ 3.98929952E+00,  5.45150461E-04,  9.01320092E-06,
                      -1.08320497E-08,  4.38985879E-12,  1.65859883E+04,
                       2.22446886E-01]),
                NASA([616.77, 3000.00],
                     [ 3.35928237E+00,  4.63117126E-03, -9.24365433E-07,
                      -9.02514624E-11,  3.56905106E-14,  1.66637014E+04,
                       2.95743732E+00])))

#-------------------------------------------------------------------------------
# Reaction data
#-------------------------------------------------------------------------------

# Reaction 1
chebyshev_reaction('aQOOH[O] (+ M) <=> aQOOHb (+ M)',
                   Tmin=180.0, Tmax=1500.0,
                   Pmin=(0.01, 'atm'), Pmax=(98.692, 'atm'),
                   coeffs=[[ 1.68000e+00,  9.06900e-01, -3.75400e-01,  8.16900e-04,  4.26800e-03,  1.86100e-03,  4.67900e-04, -1.86900e-04],
                           [ 3.45700e+00,  1.62300e+00, -1.33400e-01, -4.28900e-02,  1.40500e-02,  1.09000e-04, -2.04500e-03, -6.93300e-05],
                           [ 4.33700e-01,  4.51300e-01, -4.09500e-04, -3.64400e-02,  1.38300e-03,  7.83800e-03,  1.24300e-03, -6.10600e-04],
                           [-7.04400e-02,  1.66800e-01,  4.23000e-02, -3.03200e-02, -1.34800e-02,  6.93200e-04,  2.09000e-03,  2.01000e-04],
                           [-5.17900e-02,  1.07500e-01,  5.09300e-02, -8.48200e-03, -5.31800e-03, -1.35800e-03,  1.99300e-04,  3.40600e-04],
                           [-7.99100e-03,  3.54700e-02,  2.76300e-02, -2.86100e-03, -2.93800e-03,  6.01000e-04, -1.71300e-04, -1.71900e-05],
                           [-1.32300e-02, -6.15100e-03,  1.45700e-02,  3.46800e-03, -3.50900e-03,  3.02100e-05,  3.14000e-04, -1.79900e-04],
                           [-1.88100e-02, -2.10800e-02,  5.20700e-03,  7.08800e-03, -1.61900e-03, -1.20000e-03,  2.99900e-04,  7.38000e-05],
                           [-1.65200e-02, -1.68400e-02, -3.35500e-03,  5.40200e-03,  9.89200e-04, -1.13900e-03, -7.00300e-05,  1.52200e-04],
                           [-3.45200e-03, -4.79400e-03, -1.91000e-03,  1.16400e-03,  1.25200e-03, -3.36700e-04, -2.90100e-04,  6.02300e-05]])

# Reaction 2
chebyshev_reaction('aQOOHg (+ M) <=> aQOOHb (+ M)',
                   Tmin=180.0, Tmax=1500.0,
                   Pmin=(0.01, 'atm'), Pmax=(98.692, 'atm'),
                   coeffs=[[ 2.22300e+00,  7.12800e-01, -5.70000e-01, -4.13500e-02,  1.01500e-02,  8.24500e-03,  1.54700e-03, -1.16200e-03],
                           [ 2.80100e+00,  1.58800e+00, -1.15000e-01, -6.75800e-02,  8.34900e-04, -7.95300e-04, -1.34300e-04,  1.46200e-03],
                           [ 3.62200e-01,  5.14100e-01,  5.51200e-02, -2.93500e-02, -7.54300e-03,  1.84800e-03, -4.48300e-04, -5.91400e-04],
                           [-1.45300e-01,  1.79300e-01,  7.37200e-02, -1.02000e-02, -7.39500e-03, -9.71700e-04,  9.28800e-04, -4.18500e-05],
                           [-8.53400e-02,  9.04900e-02,  5.15000e-02, -5.55500e-03, -3.52700e-03, -3.05600e-04, -2.52200e-04,  2.06000e-04],
                           [-3.18300e-02,  3.82200e-02,  3.12300e-02, -1.10000e-04, -3.83400e-03,  9.74000e-04, -6.87100e-05, -2.99900e-04],
                           [-3.06400e-02, -2.01400e-03,  1.40600e-02,  6.13900e-03, -3.11700e-03, -1.94100e-04,  5.90900e-04, -2.13200e-04],
                           [-2.94000e-02, -1.85400e-02,  9.74400e-04,  7.34800e-03, -1.31000e-04, -1.30800e-03,  3.06800e-04,  1.47400e-04],
                           [-1.84600e-02, -1.44400e-02, -3.37700e-03,  3.88200e-03,  1.51000e-03, -8.95700e-04, -1.88400e-04,  2.04500e-04],
                           [-5.45100e-03, -3.92100e-03, -2.75400e-03,  4.41700e-04,  1.21400e-03, -6.30400e-05, -2.48500e-04,  4.95800e-05]])

# Reaction 3
chebyshev_reaction('aRO2 (+ M) <=> aQOOHb (+ M)',
                   Tmin=180.0, Tmax=1500.0,
                   Pmin=(0.01, 'atm'), Pmax=(98.692, 'atm'),
                   coeffs=[[-5.30300e+00,  7.73000e-01, -2.02400e-01,  5.75700e-04,  7.95100e-03,  6.94100e-05, -3.64000e-04, -3.53100e-05],
                           [ 1.02100e+01,  1.24000e+00, -2.88000e-01, -1.48100e-02,  1.17700e-02,  1.64100e-03, -5.92800e-04, -1.35200e-04],
                           [ 8.34900e-01,  6.37100e-01, -7.50400e-02, -3.50300e-02,  2.03300e-03,  3.68400e-03,  2.28000e-05, -2.50200e-04],
                           [-1.39900e-01,  2.19400e-01,  3.96900e-02, -3.09100e-02, -5.33500e-03,  3.03300e-03,  8.11600e-04, -2.11000e-04],
                           [-2.21000e-01,  8.57300e-02,  4.19200e-02, -1.49600e-02, -5.37300e-03,  7.11100e-04,  8.76100e-04,  1.87700e-05],
                           [-1.08900e-01,  5.83800e-02,  1.89400e-02, -5.21200e-03, -2.35900e-03, -4.25300e-04,  2.54200e-04,  1.68400e-04],
                           [-2.49300e-02,  2.06100e-02,  1.20400e-02, -8.21500e-04, -1.39800e-03, -2.45800e-04, -1.29000e-04,  9.58200e-05],
                           [ 7.40700e-03, -1.61700e-02,  1.06800e-02,  2.75600e-03, -1.68600e-03, -2.28200e-04, -1.45300e-05, -4.08000e-06],
                           [ 1.00100e-02, -2.33700e-02,  5.22300e-03,  4.22400e-03, -9.89700e-04, -5.26900e-04,  9.12900e-05,  5.39400e-06],
                           [ 3.09200e-03, -9.76200e-03, -4.19200e-04,  2.64900e-03,  2.20100e-04, -4.55900e-04, -2.20200e-05,  2.73800e-05]])

# Reaction 4
chebyshev_reaction('aadduct (+ M) <=> aQOOHb (+ M)',
                   Tmin=180.0, Tmax=1500.0,
                   Pmin=(0.01, 'atm'), Pmax=(98.692, 'atm'),
                   coeffs=[[-2.48000e+00,  1.66800e-03, -2.98900e-01,  5.87500e-03,  1.16000e-03, -6.95600e-04,  5.19900e-04, -2.73200e-04],
                           [ 5.49900e+00,  2.25800e+00, -1.87200e-01, -5.58900e-02,  1.32900e-02,  2.10400e-03, -1.79600e-03,  1.15700e-04],
                           [ 6.19600e-01,  6.13500e-01, -5.09500e-02, -1.58600e-02,  2.27800e-03,  3.22900e-03, -6.70100e-05, -3.63700e-04],
                           [ 3.77000e-02,  9.19000e-02,  8.49500e-03, -1.67300e-02, -4.46400e-03,  2.72700e-03,  1.36700e-03, -2.24300e-04],
                           [-3.40800e-02,  7.34800e-02,  5.06300e-02, -2.25000e-02, -7.04300e-03,  1.55300e-03,  9.41600e-04,  7.60700e-05],
                           [-3.66300e-02,  7.64300e-02,  3.87200e-02, -1.13700e-02, -3.77800e-03, -1.81500e-04,  1.28000e-04,  1.65100e-04],
                           [-2.95700e-02,  2.58300e-02,  1.25600e-02,  1.11400e-03, -9.90900e-04, -9.70300e-04, -1.05200e-04,  1.16600e-04],
                           [-1.58700e-02, -1.94800e-02,  2.85400e-03,  6.66900e-03, -1.05500e-03, -8.19300e-04,  3.11000e-05,  2.33100e-05],
                           [-8.20400e-03, -2.82000e-02,  3.14900e-03,  5.58100e-03, -1.16000e-03, -3.64100e-04,  6.28500e-05, -3.23000e-05],
                           [-1.07200e-03, -1.28900e-02,  2.18900e-03,  1.87900e-03, -1.47900e-04, -6.33600e-05, -5.68900e-05, -1.85200e-05]])

# Reaction 5
chebyshev_reaction('O2 + aR (+ M) <=> aQOOHb (+ M)',
                   Tmin=180.0, Tmax=1500.0,
                   Pmin=(0.01, 'atm'), Pmax=(98.692, 'atm'),
                   coeffs=[[ 6.20400e+00, -2.15100e-01, -4.80000e-01,  7.11500e-03,  1.74600e-02,  2.32800e-03, -1.94600e-03, -4.65200e-04],
                           [ 6.02200e-01,  1.06600e+00, -2.70000e-02, -8.77400e-02, -3.11700e-03,  6.26000e-03,  3.18300e-03, -7.57900e-04],
                           [ 2.91100e-01,  3.59400e-01,  6.39300e-02, -3.32400e-02, -8.14700e-03,  2.56500e-04,  1.48600e-04,  1.12100e-03],
                           [ 5.92200e-02,  1.34000e-01,  6.13500e-02, -9.61800e-03, -9.99800e-03,  9.16600e-04,  9.45300e-05, -1.32400e-04],
                           [ 2.14700e-02,  7.43600e-02,  4.26200e-02, -5.54200e-04, -9.39200e-03, -1.09900e-04,  1.46900e-03, -3.41300e-04],
                           [ 4.88300e-03,  3.39300e-02,  2.30700e-02,  4.54900e-03, -5.08200e-03, -1.77900e-03,  1.15700e-03,  2.58600e-04],
                           [-1.32300e-02, -2.95100e-03,  6.83500e-03,  6.57100e-03, -2.19800e-04, -1.99000e-03, -4.55400e-05,  4.45700e-04],
                           [-1.72600e-02, -1.74800e-02, -2.29100e-03,  4.81300e-03,  2.23300e-03, -9.22100e-04, -6.91800e-04,  1.63700e-04],
                           [-1.28800e-02, -1.50900e-02, -3.96900e-03,  2.22000e-03,  1.98900e-03, -3.89900e-05, -5.26400e-04, -6.12600e-05],
                           [-3.66600e-03, -4.56100e-03, -2.10600e-03,  9.10200e-05,  8.15200e-04,  3.03500e-04, -1.52100e-04, -9.93600e-05]])
#  aQOOHb(+M) <=> aQOOH[O](+M)                         1.000e+00 0.000     0.000
#      TCHEB/ 180.000   1500.000 /
#      PCHEB/ 0.010     98.692   /
#      CHEB/ 10 8/
#      CHEB/ -5.980e+00   9.069e-01    -3.754e-01   8.169e-04    4.268e-03   /
#      CHEB/ 1.861e-03    4.679e-04    -1.869e-04   8.124e+00    1.623e+00   /
#      CHEB/ -1.334e-01   -4.289e-02   1.405e-02    1.090e-04    -2.045e-03  /
#      CHEB/ -6.933e-05   5.117e-01    4.513e-01    -4.095e-04   -3.644e-02  /
#      CHEB/ 1.383e-03    7.838e-03    1.243e-03    -6.106e-04   -2.443e-02  /
#      CHEB/ 1.668e-01    4.230e-02    -3.032e-02   -1.348e-02   6.932e-04   /
#      CHEB/ 2.090e-03    2.010e-04    -3.642e-02   1.075e-01    5.093e-02   /
#      CHEB/ -8.482e-03   -5.318e-03   -1.358e-03   1.993e-04    3.406e-04   /
#      CHEB/ -3.221e-03   3.547e-02    2.763e-02    -2.861e-03   -2.938e-03  /
#      CHEB/ 6.010e-04    -1.713e-04   -1.719e-05   -1.142e-02   -6.151e-03  /
#      CHEB/ 1.457e-02    3.468e-03    -3.509e-03   3.021e-05    3.140e-04   /
#      CHEB/ -1.799e-04   -1.809e-02   -2.108e-02   5.207e-03    7.088e-03   /
#      CHEB/ -1.619e-03   -1.200e-03   2.999e-04    7.380e-05    -1.632e-02  /
#      CHEB/ -1.684e-02   -3.355e-03   5.402e-03    9.892e-04    -1.139e-03  /
#      CHEB/ -7.003e-05   1.522e-04    -3.445e-03   -4.794e-03   -1.910e-03  /
#      CHEB/ 1.164e-03    1.252e-03    -3.367e-04   -2.901e-04   6.023e-05   /

# Reaction 6
chebyshev_reaction('aQOOHg (+ M) <=> aQOOH[O] (+ M)',
                   Tmin=180.0, Tmax=1500.0,
                   Pmin=(0.01, 'atm'), Pmax=(98.692, 'atm'),
                   coeffs=[[ 3.46000e+00,  2.12500e+00, -5.39400e-01, -6.92800e-02,  3.17300e-04,  7.61100e-03,  2.52200e-03, -8.59300e-04],
                           [ 1.36000e+00,  1.16100e+00,  1.32800e-01, -2.97500e-02, -9.36400e-04, -4.01700e-03, -5.69400e-04,  1.64700e-03],
                           [ 4.01700e-02,  1.67100e-01,  7.39100e-02, -1.71000e-02, -8.15600e-03,  3.66200e-03, -7.12700e-06, -4.85300e-04],
                           [-6.93900e-02,  6.40800e-02,  5.22200e-02,  2.17400e-03, -1.26500e-02, -1.64200e-03,  1.68500e-03, -9.67200e-05],
                           [-2.78200e-02,  6.86600e-02,  2.82500e-02,  7.83300e-03, -3.36800e-03, -3.27500e-03,  1.44400e-04,  4.51800e-04],
                           [-2.03500e-02,  4.08800e-02,  1.35000e-02,  3.68200e-03,  7.76700e-04, -1.12100e-03, -6.08800e-04,  1.89500e-04],
                           [-3.08700e-02,  4.51700e-03,  8.13600e-03,  3.35700e-03,  3.92900e-04, -2.96000e-04, -3.18500e-04, -2.72600e-05],
                           [-2.95300e-02, -1.43900e-02,  3.14700e-03,  4.71400e-03,  4.98200e-04, -5.91400e-04, -1.63300e-04,  9.79100e-06],
                           [-2.01600e-02, -1.69500e-02, -2.32700e-03,  2.84700e-03,  1.05100e-03, -3.49200e-04, -1.85300e-04,  4.40000e-05],
                           [-4.31800e-03, -3.30400e-03, -1.36700e-03,  9.03300e-04,  8.84700e-04, -1.78600e-05, -2.05900e-04, -2.04200e-05]])

# Reaction 7
chebyshev_reaction('aRO2 (+ M) <=> aQOOH[O] (+ M)',
                   Tmin=180.0, Tmax=1500.0,
                   Pmin=(0.01, 'atm'), Pmax=(98.692, 'atm'),
                   coeffs=[[-5.05300e+00,  2.11400e+00, -3.05700e-01,  6.24100e-03, -2.51600e-03,  1.22100e-03,  7.38700e-04, -2.86400e-04],
                           [ 1.08800e+01,  1.11400e+00,  4.38000e-02, -2.29400e-02,  6.99600e-03, -2.13500e-03, -6.87900e-04,  3.48200e-04],
                           [-5.86500e-01,  2.35800e-01,  1.39900e-02, -2.04300e-02,  7.50700e-03,  3.69100e-03, -7.68800e-04, -2.46400e-04],
                           [-1.87400e-01,  8.31900e-02,  7.36700e-03, -2.09000e-02, -4.37500e-03,  4.07700e-03,  8.81600e-04, -3.56100e-04],
                           [-8.47300e-02,  6.69500e-02,  1.43300e-02, -1.02200e-02, -6.72600e-03,  6.11000e-04,  1.10200e-03, -1.66000e-05],
                           [-4.48700e-02,  3.86900e-02,  1.33900e-02, -1.18400e-03, -3.92000e-03, -9.25900e-04,  5.19700e-04,  1.88100e-04],
                           [-1.82600e-02,  5.85600e-03,  1.15300e-02,  2.26400e-03, -1.60500e-03, -1.09000e-03,  1.59200e-04,  1.94900e-04],
                           [ 2.42100e-03, -1.88000e-02,  1.07500e-02,  3.30200e-03, -1.34200e-03, -4.77100e-04, -6.13700e-05,  8.83100e-05],
                           [ 6.26100e-03, -1.24100e-02,  6.44100e-05,  4.02800e-03, -1.19400e-04, -6.95300e-04,  2.39500e-05,  7.22900e-05],
                           [ 3.24800e-03, -8.35400e-03,  1.39900e-03,  1.41100e-03,  3.29900e-04, -3.51800e-04, -1.29000e-04,  4.93000e-05]])

# Reaction 8
chebyshev_reaction('aadduct (+ M) <=> aQOOH[O] (+ M)',
                   Tmin=180.0, Tmax=1500.0,
                   Pmin=(0.01, 'atm'), Pmax=(98.692, 'atm'),
                   coeffs=[[-1.91700e+00,  1.78000e+00, -4.35800e-01, -2.63000e-02, -3.58500e-03,  3.05600e-03,  8.11000e-04, -4.70000e-04],
                           [ 5.59000e+00,  1.45100e+00,  1.70400e-01, -5.36100e-03,  4.73900e-04, -4.97600e-03, -8.71100e-04,  5.13400e-04],
                           [-5.14800e-01,  3.27400e-01,  3.54400e-02, -1.60400e-02,  8.06800e-03,  3.29600e-03, -5.32800e-04, -2.11400e-04],
                           [-4.87800e-02,  6.97200e-02,  2.20600e-03, -1.69400e-02, -2.76700e-03,  3.59700e-03,  6.85800e-04, -2.85900e-04],
                           [ 7.08400e-02,  4.01800e-02,  1.21000e-02, -8.65100e-03, -6.40600e-03,  7.65700e-04,  1.05300e-03, -4.30800e-05],
                           [ 4.84100e-02,  2.34900e-02,  1.39200e-02, -9.80500e-04, -4.44900e-03, -8.08000e-04,  6.53100e-04,  1.93600e-04],
                           [-5.17500e-03,  2.71900e-03,  1.27100e-02,  2.03000e-03, -1.89300e-03, -1.31300e-03,  2.23600e-04,  2.59900e-04],
                           [-2.07300e-02, -1.87400e-02,  1.20400e-02,  3.50500e-03, -1.47300e-03, -6.41800e-04, -1.56300e-04,  1.17400e-04],
                           [-1.99100e-02, -1.06400e-02, -1.86400e-03,  4.64300e-03,  3.41700e-04, -8.84000e-04, -1.04900e-04,  8.61400e-05],
                           [-4.03900e-03, -7.91200e-03,  1.25400e-03,  1.53900e-03,  5.87900e-04, -3.17000e-04, -2.10000e-04,  1.66000e-05]])

# Reaction 9
chebyshev_reaction('O2 + aR (+ M) <=> aQOOH[O] (+ M)',
                   Tmin=180.0, Tmax=1500.0,
                   Pmin=(0.01, 'atm'), Pmax=(98.692, 'atm'),
                   coeffs=[[ 6.64500e+00,  1.17300e+00, -3.09800e-01, -2.77100e-02,  1.71900e-02,  5.30100e-04, -3.13400e-03, -1.25600e-04],
                           [-1.18400e-01,  4.46700e-01,  9.32600e-02, -3.93400e-02, -1.55700e-02,  8.18800e-03,  4.08200e-03, -1.18700e-03],
                           [ 1.46900e-01,  9.25600e-02,  5.18800e-02,  5.81400e-03, -1.12700e-02, -4.85500e-03,  1.63400e-03,  1.42000e-03],
                           [ 5.88700e-02,  4.99500e-02,  2.70000e-02,  6.15200e-03, -3.55500e-03, -3.45800e-03, -5.01500e-04,  7.18000e-04],
                           [ 3.93500e-02,  5.76200e-02,  2.00000e-02,  3.00500e-04, -2.25200e-03, -7.43500e-04, -1.65300e-04, -1.19500e-05],
                           [ 1.62500e-02,  3.32400e-02,  1.25500e-02,  4.63600e-04, -1.53300e-03, -4.14800e-04,  4.46100e-05, -2.64300e-05],
                           [-8.05400e-03, -1.53500e-03,  3.79600e-03,  3.35800e-03,  4.98200e-04, -6.45600e-04, -3.09100e-04,  3.44600e-05],
                           [-1.32800e-02, -1.58700e-02, -1.84700e-03,  3.76500e-03,  1.98100e-03, -2.67400e-04, -5.35900e-04, -7.42100e-05],
                           [-1.53700e-02, -1.58800e-02, -4.18000e-03,  1.62300e-03,  1.45000e-03,  5.45200e-05, -3.39100e-04, -1.24500e-04],
                           [-1.60500e-03, -3.78700e-03, -1.45200e-03,  3.18600e-04,  7.17800e-04,  3.20900e-04, -3.84000e-05, -1.00000e-04]])
#  aQOOHb(+M) <=> aQOOHg(+M)                           1.000e+00 0.000     0.000
#      TCHEB/ 180.000   1500.000 /
#      PCHEB/ 0.010     98.692   /
#      CHEB/ 10 8/
#      CHEB/ -7.609e+00   7.128e-01    -5.700e-01   -4.135e-02   1.015e-02   /
#      CHEB/ 8.245e-03    1.547e-03    -1.162e-03   9.324e+00    1.588e+00   /
#      CHEB/ -1.150e-01   -6.758e-02   8.349e-04    -7.953e-04   -1.343e-04  /
#      CHEB/ 1.462e-03    5.854e-01    5.141e-01    5.512e-02    -2.935e-02  /
#      CHEB/ -7.543e-03   1.848e-03    -4.483e-04   -5.914e-04   -5.117e-02  /
#      CHEB/ 1.793e-01    7.372e-02    -1.020e-02   -7.395e-03   -9.717e-04  /
#      CHEB/ 9.288e-04    -4.185e-05   -5.714e-02   9.049e-02    5.150e-02   /
#      CHEB/ -5.555e-03   -3.527e-03   -3.056e-04   -2.522e-04   2.060e-04   /
#      CHEB/ -2.396e-02   3.822e-02    3.123e-02    -1.100e-04   -3.834e-03  /
#      CHEB/ 9.740e-04    -6.871e-05   -2.999e-04   -2.813e-02   -2.014e-03  /
#      CHEB/ 1.406e-02    6.139e-03    -3.117e-03   -1.941e-04   5.909e-04   /
#      CHEB/ -2.132e-04   -2.867e-02   -1.854e-02   9.744e-04    7.348e-03   /
#      CHEB/ -1.310e-04   -1.308e-03   3.068e-04    1.474e-04    -1.844e-02  /
#      CHEB/ -1.444e-02   -3.377e-03   3.882e-03    1.510e-03    -8.957e-04  /
#      CHEB/ -1.884e-04   2.045e-04    -5.593e-03   -3.921e-03   -2.754e-03  /
#      CHEB/ 4.417e-04    1.214e-03    -6.304e-05   -2.485e-04   4.958e-05   /
#  aQOOH[O](+M) <=> aQOOHg(+M)                         1.000e+00 0.000     0.000
#      TCHEB/ 180.000   1500.000 /
#      PCHEB/ 0.010     98.692   /
#      CHEB/ 10 8/
#      CHEB/ 1.288e+00    2.125e+00    -5.394e-01   -6.928e-02   3.173e-04   /
#      CHEB/ 7.611e-03    2.522e-03    -8.593e-04   3.217e+00    1.161e+00   /
#      CHEB/ 1.328e-01    -2.975e-02   -9.364e-04   -4.017e-03   -5.694e-04  /
#      CHEB/ 1.647e-03    1.854e-01    1.671e-01    7.391e-02    -1.710e-02  /
#      CHEB/ -8.156e-03   3.662e-03    -7.127e-06   -4.853e-04   -2.125e-02  /
#      CHEB/ 6.408e-02    5.222e-02    2.174e-03    -1.265e-02   -1.642e-03  /
#      CHEB/ 1.685e-03    -9.672e-05   -1.500e-02   6.866e-02    2.825e-02   /
#      CHEB/ 7.833e-03    -3.368e-03   -3.275e-03   1.444e-04    4.518e-04   /