units(length='cm', time='s', quantity='mol', act_energy='kcal/mol')

ideal_gas(name='gas',
          elements="H D T C Ci O Oi N Ne Ar He Si S F Cl Br I X",
          species="""propene3ol       OH               disub_c4ether
                     H2O              disub_epoxy      gQOOHa
                     propene1ol       gQOOHb           ipropylOOH
                     galdoxy          galkene          CH2O
                     O2               gRO2             gQOOHg
                     gR               galdol           monosub_c4ether
                     HO2              gQOOH[O]""",
          reactions='all',
          initial_state=state(temperature=300.0, pressure=OneAtm))

#-------------------------------------------------------------------------------
# Element data
#-------------------------------------------------------------------------------

element(symbol='Ci', atomic_mass=13.003)
element(symbol='D', atomic_mass=2.014)
element(symbol='Oi', atomic_mass=18.0)
element(symbol='T', atomic_mass=3.016)
element(symbol='X', atomic_mass=195.083)
#-------------------------------------------------------------------------------
# Species data
#-------------------------------------------------------------------------------

species(name='propene3ol',
        atoms='C:3 H:6 O:1',
        thermo=(NASA([10.00, 444.81],
                     [ 3.92769709E+00,  4.89977303E-03,  1.13094874E-04,
                      -2.59008187E-07,  1.86205760E-10, -1.55815254E+04,
                       9.90805416E+00]),
                NASA([444.81, 3000.00],
                     [ 2.61720343E+00,  3.01777872E-02, -1.76511625E-05,
                       5.14864061E-09, -5.91153761E-13, -1.55984259E+04,
                       1.36683107E+01])))

species(name='OH',
        atoms='H:1 O:1',
        thermo=(NASA([10.00, 984.14],
                     [ 3.49686242E+00,  1.83973160E-04, -9.97634499E-07,
                       1.56942783E-09, -6.10128175E-13,  3.41673934E+03,
                       1.48093120E+00]),
                NASA([984.14, 3000.00],
                     [ 3.45221464E+00, -2.95124034E-04,  7.39418622E-07,
                      -2.89309866E-10,  3.53041498E-14,  3.45751599E+03,
                       1.85813897E+00])))

species(name='disub_c4ether',
        atoms='C:4 H:8 O:2',
        thermo=(NASA([10.00, 413.50],
                     [ 3.78241323E+00,  1.89501763E-02,  8.65302396E-05,
                      -1.80580575E-07,  1.13656264E-10, -4.03517168E+04,
                       1.09982450E+01]),
                NASA([413.50, 3000.00],
                     [ 4.29420885E-01,  5.13851903E-02, -3.11292293E-05,
                       9.11498284E-09, -1.03192718E-12, -4.00744224E+04,
                       2.42134976E+01])))

species(name='H2O',
        atoms='H:2 O:1',
        thermo=(NASA([10.00, 773.84],
                     [ 4.00473541E+00, -2.39729134E-04,  8.11862955E-07,
                       1.47891862E-09, -1.19783539E-12, -3.03533807E+04,
                      -9.96254147E-02]),
                NASA([773.84, 3000.00],
                     [ 3.52133374E+00,  1.05377009E-03,  6.40722099E-07,
                      -3.86240235E-10,  5.49243294E-14, -3.02424794E+04,
                       2.34173094E+00])))

species(name='disub_epoxy',
        atoms='C:4 H:8 O:2',
        thermo=(NASA([10.00, 549.41],
                     [ 3.89863211E+00,  5.97532637E-03,  1.66685676E-04,
                      -3.10743768E-07,  1.78330192E-10, -3.75389928E+04,
                       1.13847308E+01]),
                NASA([549.41, 3000.00],
                     [-6.40277648E-01,  6.05960003E-02, -4.13427220E-05,
                       1.31555461E-08, -1.57685017E-12, -3.73658760E+04,
                       2.76005436E+01])))

species(name='gQOOHa',
        atoms='C:4 H:9 O:3',
        thermo=(NASA([10.00, 160.74],
                     [ 3.80808147E+00,  2.31043884E-02,  5.26945984E-04,
                      -3.11500696E-06,  6.03881958E-09, -2.47453858E+04,
                       1.17645316E+01]),
                NASA([160.74, 3000.00],
                     [ 2.90630300E+00,  6.50241173E-02, -4.60073244E-05,
                       1.51330930E-08, -1.87074267E-12, -2.47415612E+04,
                       1.36838819E+01])))

species(name='propene1ol',
        atoms='C:3 H:6 O:1',
        thermo=(NASA([10.00, 459.42],
                     [ 3.91245344E+00,  5.85800161E-03,  1.15412006E-04,
                      -2.68014417E-07,  1.91800131E-10, -1.96452800E+04,
                       8.14807684E+00]),
                NASA([459.42, 3000.00],
                     [ 3.14049093E+00,  2.95550898E-02, -1.73843684E-05,
                       5.11506211E-09, -5.92966137E-13, -1.97535025E+04,
                       9.32215170E+00])))

species(name='gQOOHb',
        atoms='C:4 H:9 O:3',
        thermo=(NASA([10.00, 1018.67],
                     [ 3.99028351E+00,  4.29665712E-02,  2.28338778E-05,
                      -5.67914439E-08,  2.29383258E-11, -2.44474792E+04,
                       1.20326731E+01]),
                NASA([1018.67, 3000.00],
                     [ 1.38304153E+01,  3.88527019E-02, -2.19473905E-05,
                       5.78719895E-09, -5.85097740E-13, -2.82435639E+04,
                      -4.44147388E+01])))

species(name='ipropylOOH',
        atoms='C:3 H:7 O:2',
        thermo=(NASA([10.00, 405.01],
                     [ 3.30075623E+00,  7.58672756E-02, -3.35754269E-04,
                       8.05972164E-07, -6.68864582E-10, -7.37083849E+02,
                       1.43372849E+01]),
                NASA([405.01, 3000.00],
                     [ 2.51742509E+00,  3.72760950E-02, -2.12450220E-05,
                       5.83593926E-09, -6.22110649E-13, -2.93676242E+02,
                       2.20991392E+01])))

species(name='galdoxy',
        atoms='C:4 H:7 O:2',
        thermo=(NASA([10.00, 209.62],
                     [ 3.82641108E+00,  1.84758886E-02,  3.43073800E-04,
                      -1.82817005E-06,  2.98516720E-09, -1.67713128E+04,
                       1.17972706E+01]),
                NASA([209.62, 3000.00],
                     [ 4.22049016E+00,  4.03370149E-02, -2.36129482E-05,
                       6.72979114E-09, -7.47862493E-13, -1.68523826E+04,
                       8.97211724E+00])))

species(name='galkene',
        atoms='C:4 H:8 O:1',
        thermo=(NASA([10.00, 383.47],
                     [ 3.84035604E+00,  1.20378740E-02,  1.87486319E-04,
                      -5.44759148E-07,  4.80711015E-10, -2.24656454E+04,
                       1.02570291E+01]),
                NASA([383.47, 3000.00],
                     [ 4.00413385E+00,  3.79025144E-02, -2.15435710E-05,
                       6.15213311E-09, -6.97446345E-13, -2.26809348E+04,
                       6.98052628E+00])))

species(name='CH2O',
        atoms='C:1 H:2 O:1',
        thermo=(NASA([10.00, 601.31],
                     [ 4.03190845E+00, -1.93233367E-03,  8.89743345E-06,
                       2.98105926E-09, -7.90813886E-12, -1.42276270E+04,
                       3.47574660E+00]),
                NASA([601.31, 3000.00],
                     [ 1.40134195E+00,  9.48858016E-03, -4.43088317E-06,
                       9.48452194E-10, -7.43790219E-14, -1.38013869E+04,
                       1.57423780E+01])))

species(name='O2',
        atoms='O:2',
        thermo=(NASA([10.00, 605.96],
                     [ 3.50743498E+00, -4.43860349E-04,  1.45938058E-06,
                       1.61509333E-09, -2.32050052E-12, -9.24756224E+02,
                       4.72183634E+00]),
                NASA([605.96, 3000.00],
                     [ 2.87462882E+00,  2.17840991E-03, -1.18262921E-06,
                       2.86910493E-10, -2.53297146E-14, -8.19517838E+02,
                       7.69331810E+00])))

species(name='gRO2',
        atoms='C:4 H:9 O:3',
        thermo=(NASA([10.00, 177.33],
                     [ 3.70632176E+00,  3.49733664E-02,  4.64036392E-04,
                      -3.18637835E-06,  6.38178607E-09, -3.10726154E+04,
                       1.24459269E+01]),
                NASA([177.33, 3000.00],
                     [ 4.82062697E+00,  5.17179689E-02, -3.18386818E-05,
                       9.52247045E-09, -1.10180288E-12, -3.11779859E+04,
                       7.14082953E+00])))

species(name='gQOOHg',
        atoms='C:4 H:9 O:3',
        thermo=(NASA([10.00, 475.03],
                     [ 3.42273720E+00,  4.98344215E-02,  6.47820920E-05,
                      -2.49842966E-07,  1.98636537E-10, -2.06048778E+04,
                       1.41578583E+01]),
                NASA([475.03, 3000.00],
                     [ 5.94049074E+00,  5.53778585E-02, -3.71708255E-05,
                       1.17540477E-08, -1.40812095E-12, -2.11458321E+04,
                       7.09201218E-01])))

species(name='gR',
        atoms='C:4 H:9 O:1',
        thermo=(NASA([10.00, 638.24],
                     [ 3.37074633E+00,  5.17529751E-02, -6.54872940E-05,
                       6.88084237E-08, -3.21569794E-11, -1.05650950E+04,
                       1.14339669E+01]),
                NASA([638.24, 3000.00],
                     [ 3.99410860E+00,  4.06314915E-02, -2.23932510E-05,
                       6.08356263E-09, -6.49884708E-13, -1.04977203E+04,
                       9.85769960E+00])))

species(name='galdol',
        atoms='C:4 H:8 O:2',
        thermo=(NASA([10.00, 506.68],
                     [ 3.85380874E+00,  9.21272695E-03,  1.86712348E-04,
                      -3.96417049E-07,  2.55528268E-10, -4.69725984E+04,
                       1.24312743E+01]),
                NASA([506.68, 3000.00],
                     [ 1.49710213E+00,  5.65979142E-02, -3.87709084E-05,
                       1.23682052E-08, -1.48287964E-12, -4.71032078E+04,
                       1.85531759E+01])))

species(name='monosub_c4ether',
        atoms='C:4 H:8 O:2',
        thermo=(NASA([10.00, 380.36],
                     [ 3.47743996E+00,  6.08051311E-02, -2.78518945E-04,
                       8.23182713E-07, -7.87158031E-10, -3.12490789E+04,
                       1.06415154E+01]),
                NASA([380.36, 3000.00],
                     [-1.09346901E+00,  5.35985968E-02, -3.21081420E-05,
                       9.20818293E-09, -1.01830294E-12, -3.05015188E+04,
                       3.35312368E+01])))

species(name='HO2',
        atoms='H:1 O:2',
        thermo=(NASA([10.00, 891.11],
                     [ 4.02887004E+00, -1.75769289E-03,  1.08726004E-05,
                      -1.13812972E-08,  3.90113097E-12,  4.95165001E+02,
                       4.69302008E+00]),
                NASA([891.11, 3000.00],
                     [ 3.06571044E+00,  4.28505005E-03, -2.19325920E-06,
                       5.58882699E-10, -5.61246669E-14,  5.98557610E+02,
                       8.84564156E+00])))

species(name='gQOOH[O]',
        atoms='C:4 H:9 O:3',
        thermo=(NASA([10.00, 535.23],
                     [ 3.83107445E+00,  1.02302002E-02,  2.29377261E-04,
                      -4.59095575E-07,  2.77765018E-10, -1.85912619E+04,
                       1.41034859E+01]),
                NASA([535.23, 3000.00],
                     [-4.19283096E-01,  7.69784620E-02, -5.57279000E-05,
                       1.81378295E-08, -2.18295635E-12, -1.86373753E+04,
                       2.72711816E+01])))

#-------------------------------------------------------------------------------
# Reaction data
#-------------------------------------------------------------------------------

# Reaction 1
chebyshev_reaction('gQOOH[O] (+ M) <=> gRO2 (+ M)',
                   Tmin=180.0, Tmax=1500.0,
                   Pmin=(0.01, 'atm'), Pmax=(98.692, 'atm'),
                   coeffs=[[ 8.01100e+00,  7.43700e-01, -1.35500e-01,  1.53500e-02,  1.11600e-03, -1.51400e-03, -2.07800e-04,  2.22500e-04],
                           [ 3.15500e-01,  1.01500e+00, -7.97300e-02, -1.81100e-02,  6.28800e-03, -1.03100e-03, -7.74700e-04,  2.41900e-04],
                           [-6.99800e-01,  4.37200e-01,  6.70200e-02, -2.42600e-02, -4.33600e-03,  2.53000e-03, -1.09500e-04, -3.43900e-04],
                           [-5.13800e-01,  1.61000e-01,  5.92300e-02, -1.00900e-03, -7.33700e-03,  8.78300e-04,  8.22200e-04, -3.12000e-04],
                           [-2.45600e-01,  6.94700e-02,  1.26500e-02,  8.71700e-03, -1.72500e-03, -9.30600e-04,  4.32900e-04,  4.04700e-05],
                           [-1.00000e-01,  3.26800e-02, -1.08300e-02,  5.16400e-03,  2.37200e-03, -5.86200e-04, -1.90700e-04,  9.92200e-05],
                           [-3.22800e-02,  1.47000e-02, -1.39900e-02,  3.01100e-04,  2.51500e-03,  2.13100e-04, -2.50000e-04, -1.28900e-06],
                           [-4.60100e-03,  7.08200e-03, -9.26000e-03, -1.86300e-03,  1.16600e-03,  4.24800e-04, -5.72000e-05, -2.77900e-05],
                           [ 2.40900e-03,  5.13200e-03, -4.35000e-03, -1.80200e-03,  1.26200e-04,  2.35700e-04,  4.58900e-05,  3.27700e-06],
                           [ 2.02800e-03,  3.97000e-03, -1.08000e-03, -1.09200e-03, -2.28900e-04,  4.05900e-05,  3.15500e-05,  1.87500e-05]])

# Reaction 2
chebyshev_reaction('gQOOHa (+ M) <=> gRO2 (+ M)',
                   Tmin=180.0, Tmax=1500.0,
                   Pmin=(0.01, 'atm'), Pmax=(98.692, 'atm'),
                   coeffs=[[ 5.93100e+00,  3.29100e-01, -9.45400e-02,  3.49700e-03,  2.67300e-03,  3.87400e-04, -1.54200e-04, -6.19900e-05],
                           [ 2.41900e+00,  5.92500e-01, -1.60900e-01,  6.04100e-04,  5.79400e-03,  8.38600e-04, -3.01400e-04, -1.26400e-04],
                           [ 1.84300e-01,  4.32700e-01, -9.58700e-02, -1.20100e-02,  5.78900e-03,  1.16300e-03, -2.78700e-04, -1.34200e-04],
                           [-2.73400e-01,  2.57300e-01, -3.26400e-02, -1.92700e-02,  3.63100e-03,  1.68900e-03, -1.83100e-04, -1.51700e-04],
                           [-1.69600e-01,  1.25700e-01,  3.88600e-03, -1.67400e-02,  4.29600e-05,  1.90600e-03,  4.60500e-05, -1.65700e-04],
                           [-6.07500e-02,  5.21700e-02,  1.38200e-02, -8.83600e-03, -2.65800e-03,  1.42500e-03,  3.33500e-04, -1.39700e-04],
                           [-2.59500e-02,  2.03300e-02,  1.02700e-02, -1.86500e-03, -3.19100e-03,  4.92800e-04,  4.92300e-04, -5.53900e-05],
                           [-1.63500e-02,  9.03600e-03,  4.52300e-03,  1.43600e-03, -2.14200e-03, -2.95500e-04,  4.20300e-04,  5.00300e-05],
                           [-9.35000e-03,  4.99200e-03,  1.05700e-03,  1.85300e-03, -8.07800e-04, -5.91100e-04,  1.99100e-04,  1.14100e-04],
                           [-4.59400e-03,  2.89400e-03, -1.48800e-04,  1.16000e-03,  2.25200e-05, -4.78300e-04, -8.54700e-06,  1.08700e-04]])

# Reaction 3
chebyshev_reaction('gQOOHg (+ M) <=> gRO2 (+ M)',
                   Tmin=180.0, Tmax=1500.0,
                   Pmin=(0.01, 'atm'), Pmax=(98.692, 'atm'),
                   coeffs=[[ 8.72300e+00,  5.62700e-01, -2.13000e-01,  3.31000e-02,  3.46700e-03, -9.68300e-04, -5.67800e-04, -2.33700e-05],
                           [ 3.15900e-01,  6.91700e-01, -1.90800e-01, -1.71000e-02,  2.33800e-02, -1.86500e-03, -2.24800e-03,  3.33200e-04],
                           [-1.11700e-01,  3.23300e-01, -4.26000e-02, -3.24500e-02,  8.98300e-03,  4.64900e-03, -2.27600e-03, -4.00000e-04],
                           [-1.35200e-01,  1.51900e-01, -2.55400e-03, -1.63100e-02, -2.78300e-03,  4.63600e-03, -9.97300e-05, -9.32000e-04],
                           [-9.04900e-02,  8.81200e-02, -1.15200e-03, -3.99300e-03, -4.54900e-03,  1.59200e-03,  1.13100e-03, -5.66500e-04],
                           [-5.60700e-02,  5.67900e-02, -1.96200e-03, -4.43600e-04, -2.49800e-03, -3.04800e-04,  9.68900e-04, -2.24100e-05],
                           [-3.46700e-02,  3.42600e-02, -8.05500e-05, -4.34200e-04, -8.44200e-04, -6.75300e-04,  4.10700e-04,  2.17600e-04],
                           [-2.07500e-02,  1.82600e-02,  1.56700e-03, -5.44100e-04, -2.62600e-04, -4.41900e-04,  5.44300e-05,  1.97000e-04],
                           [-1.07700e-02,  7.15500e-03,  2.64100e-03, -5.00600e-04, -1.55900e-04, -1.69500e-04, -7.94600e-05,  1.06500e-04],
                           [-5.39000e-03,  2.49000e-03,  1.80200e-03,  1.71900e-05, -1.68500e-04, -7.62900e-05, -5.80700e-05,  2.78200e-05]])

# Reaction 4
chebyshev_reaction('gQOOHb (+ M) <=> gRO2 (+ M)',
                   Tmin=180.0, Tmax=1500.0,
                   Pmin=(0.01, 'atm'), Pmax=(98.692, 'atm'),
                   coeffs=[[ 3.56000e+00,  6.62000e-01, -7.56700e-02, -1.18300e-02, -4.19200e-05,  2.41300e-04,  5.64700e-05,  1.27400e-05],
                           [ 2.01400e+00,  1.12400e+00, -1.13100e-01, -2.02700e-02, -1.30300e-03,  2.74000e-04,  1.25700e-04,  3.65400e-05],
                           [ 4.35500e-01,  6.65100e-01, -3.38800e-02, -1.05400e-02, -3.49700e-03, -2.99400e-04,  1.09800e-04,  6.09700e-05],
                           [-6.57300e-02,  2.30100e-01,  2.14900e-02,  1.67500e-03, -3.83100e-03, -9.55900e-04, -2.49800e-05,  7.19100e-05],
                           [-1.16100e-01,  1.21300e-03,  2.69800e-02,  8.95000e-03, -1.30800e-03, -1.16200e-03, -2.57900e-04,  3.71200e-05],
                           [-6.89000e-02, -3.64500e-02,  6.07300e-03,  7.29900e-03,  1.95900e-03, -6.10900e-04, -4.09800e-04, -4.44600e-05],
                           [-3.71500e-02,  1.90500e-03, -9.46400e-03,  7.84100e-04,  3.17200e-03,  3.01700e-04, -3.12800e-04, -1.19500e-04],
                           [-2.42600e-02,  2.93700e-02, -1.02800e-02, -3.64700e-03,  1.89700e-03,  8.19800e-04, -2.55600e-05, -1.21900e-04],
                           [-1.59700e-02,  2.70600e-02, -4.34500e-03, -3.51400e-03, -3.59400e-05,  6.48000e-04,  2.07100e-04, -4.82500e-05],
                           [-7.93100e-03,  1.18000e-02,  3.19700e-04, -1.24800e-03, -9.71900e-04,  1.68100e-04,  2.23700e-04,  3.30700e-05]])

# Reaction 5
chebyshev_reaction('O2 + gR (+ M) <=> gRO2 (+ M)',
                   Tmin=180.0, Tmax=1500.0,
                   Pmin=(0.01, 'atm'), Pmax=(98.692, 'atm'),
                   coeffs=[[ 1.30700e+01,  2.12800e-01, -5.62800e-02,  3.34600e-03,  4.30600e-04,  1.89700e-04, -2.79800e-05, -1.37700e-06],
                           [-8.83900e-01,  3.78900e-01, -9.34800e-02,  2.23000e-03,  1.53000e-03,  2.42000e-04, -1.06500e-05, -1.29100e-05],
                           [-3.95200e-01,  2.71600e-01, -5.30100e-02, -5.35400e-03,  2.01500e-03,  2.07400e-04,  1.92400e-05, -1.50800e-05],
                           [-2.01800e-01,  1.61500e-01, -1.75000e-02, -8.85800e-03,  1.21900e-03,  3.63300e-04,  2.54600e-05, -1.15000e-05],
                           [-1.06900e-01,  8.47400e-02,  3.02800e-04, -7.07200e-03, -1.62400e-04,  4.32100e-04,  5.31200e-05, -9.00700e-06],
                           [-5.79900e-02,  4.33700e-02,  4.20700e-03, -3.46200e-03, -9.31500e-04,  2.62000e-04,  8.98500e-05, -2.32500e-06],
                           [-3.24400e-02,  2.30200e-02,  3.12100e-03, -1.03700e-03, -8.33900e-04,  1.46800e-05,  8.66400e-05,  1.05700e-05],
                           [-1.75400e-02,  1.13200e-02,  2.15000e-03, -2.10800e-04, -4.06300e-04, -1.13100e-04,  4.18100e-05,  1.91200e-05],
                           [-7.89000e-03,  3.41500e-03,  1.94000e-03, -6.28200e-05, -1.23200e-04, -1.04000e-04, -2.67100e-06,  1.58200e-05],
                           [-1.86500e-03, -1.42200e-03,  1.71600e-03,  6.56200e-05, -4.53900e-05, -5.41800e-05, -1.90300e-05,  6.05400e-06]])
#  gRO2(+M) <=> gQOOH[O](+M)                           1.000e+00 0.000     0.000
#      TCHEB/ 180.000   1500.000 /
#      PCHEB/ 0.010     98.692   /
#      CHEB/ 10 8/
#      CHEB/ -9.338e+00   7.437e-01    -1.355e-01   1.535e-02    1.116e-03   /
#      CHEB/ -1.514e-03   -2.078e-04   2.225e-04    1.330e+01    1.015e+00   /
#      CHEB/ -7.973e-02   -1.811e-02   6.288e-03    -1.031e-03   -7.747e-04  /
#      CHEB/ 2.419e-04    -5.267e-01   4.372e-01    6.702e-02    -2.426e-02  /
#      CHEB/ -4.336e-03   2.530e-03    -1.095e-04   -3.439e-04   -3.891e-01  /
#      CHEB/ 1.610e-01    5.923e-02    -1.009e-03   -7.337e-03   8.783e-04   /
#      CHEB/ 8.222e-04    -3.120e-04   -1.919e-01   6.947e-02    1.265e-02   /
#      CHEB/ 8.717e-03    -1.725e-03   -9.306e-04   4.329e-04    4.047e-05   /
#      CHEB/ -8.099e-02   3.268e-02    -1.083e-02   5.164e-03    2.372e-03   /
#      CHEB/ -5.862e-04   -1.907e-04   9.922e-05    -2.607e-02   1.470e-02   /
#      CHEB/ -1.399e-02   3.011e-04    2.515e-03    2.131e-04    -2.500e-04  /
#      CHEB/ -1.289e-06   -2.683e-03   7.082e-03    -9.260e-03   -1.863e-03  /
#      CHEB/ 1.166e-03    4.248e-04    -5.720e-05   -2.779e-05   2.870e-03   /
#      CHEB/ 5.132e-03    -4.350e-03   -1.802e-03   1.262e-04    2.357e-04   /
#      CHEB/ 4.589e-05    3.277e-06    1.999e-03    3.970e-03    -1.080e-03  /
#      CHEB/ -1.092e-03   -2.289e-04   4.059e-05    3.155e-05    1.875e-05   /

# Reaction 6
chebyshev_reaction('gQOOHa (+ M) <=> gQOOH[O] (+ M)',
                   Tmin=180.0, Tmax=1500.0,
                   Pmin=(0.01, 'atm'), Pmax=(98.692, 'atm'),
                   coeffs=[[-5.65500e+00, -6.76400e-01, -2.75000e-01,  2.90200e-02,  9.88800e-04, -1.59700e-03,  1.85300e-04,  1.55000e-04],
                           [ 8.31700e+00,  1.72200e+00, -1.75600e-01, -3.80700e-02,  1.07300e-02,  7.31500e-04, -6.26200e-04, -5.83200e-05],
                           [-4.72100e-01,  7.48200e-01,  5.14200e-02, -4.44000e-02, -2.50500e-03,  4.48100e-03,  1.39300e-04, -6.01500e-04],
                           [-4.68900e-01,  2.81800e-01,  4.86500e-02, -1.59200e-02, -2.89400e-03,  1.90900e-03,  4.04000e-04, -1.88700e-04],
                           [-1.63500e-01,  1.09100e-01,  2.55200e-03, -2.76300e-03,  6.32200e-04,  1.01500e-03, -1.54000e-04,  2.27200e-05],
                           [-4.78600e-04,  4.12800e-02, -1.20800e-02, -1.95200e-03,  3.91900e-04,  1.06200e-03,  1.03100e-04, -9.59400e-05],
                           [ 3.42700e-02,  1.88100e-02, -8.49800e-03, -1.42800e-03, -1.56200e-03,  3.54700e-04,  5.95400e-04, -3.01700e-05],
                           [ 1.55500e-02,  1.01400e-02, -7.97000e-04, -3.45300e-04, -2.04700e-03, -5.29500e-04,  5.44600e-04,  1.50300e-04],
                           [-3.98900e-03,  5.88300e-03,  2.89600e-03,  6.53100e-04, -1.22200e-03, -8.27200e-04,  1.66900e-04,  1.98400e-04],
                           [-1.20300e-02,  2.32000e-03,  3.11100e-03,  9.43500e-04, -3.05000e-04, -5.74100e-04, -9.99800e-05,  1.07400e-04]])

# Reaction 7
chebyshev_reaction('gQOOHg (+ M) <=> gQOOH[O] (+ M)',
                   Tmin=180.0, Tmax=1500.0,
                   Pmin=(0.01, 'atm'), Pmax=(98.692, 'atm'),
                   coeffs=[[-1.49100e+00, -3.30200e-01, -4.33200e-01,  5.93600e-02,  1.04000e-02, -7.31500e-03,  1.93900e-04,  6.65500e-04],
                           [ 4.50200e+00,  1.65500e+00, -1.17000e-01, -7.63100e-02,  2.44400e-02,  3.92600e-03, -4.78000e-03,  3.04900e-04],
                           [-2.79900e-01,  5.98800e-01,  9.15700e-02, -4.14200e-02, -9.12400e-03,  8.53400e-03, -2.64900e-04, -1.66800e-03],
                           [-3.69400e-01,  2.19500e-01,  3.38000e-02,  2.90800e-03, -7.55400e-03,  1.56900e-03,  1.49000e-03, -7.76200e-04],
                           [-1.17100e-01,  9.05700e-02, -1.61600e-02,  6.63900e-03,  1.26900e-03, -6.24300e-04,  5.29800e-04,  2.67900e-06],
                           [ 1.89300e-02,  3.76200e-02, -1.88200e-02, -1.31200e-03,  2.13700e-03,  1.60200e-04,  1.90600e-04,  1.04300e-04],
                           [ 3.77200e-02,  1.88200e-02, -6.05100e-03, -4.13100e-03, -6.11600e-04,  3.31200e-04,  3.70200e-04,  1.31200e-04],
                           [ 1.35800e-02,  1.33200e-02,  2.87800e-03, -2.50200e-03, -1.89700e-03, -1.96200e-04,  3.28400e-04,  1.75600e-04],
                           [-1.16100e-02,  7.55400e-03,  6.01000e-03, -4.74600e-04, -1.51300e-03, -4.11500e-04,  7.69100e-05,  1.23300e-04],
                           [-1.25300e-02,  4.52600e-03,  4.09000e-03,  5.81400e-04, -4.71900e-04, -3.92500e-04, -7.30600e-05,  5.19000e-05]])

# Reaction 8
chebyshev_reaction('gQOOHb (+ M) <=> gQOOH[O] (+ M)',
                   Tmin=180.0, Tmax=1500.0,
                   Pmin=(0.01, 'atm'), Pmax=(98.692, 'atm'),
                   coeffs=[[-8.37400e+00, -7.52600e-02, -3.12100e-01,  1.57000e-02,  3.43100e-03, -2.89800e-03, -1.72600e-04,  4.01300e-04],
                           [ 8.49400e+00,  2.22300e+00, -5.80900e-02, -6.95100e-02,  2.01900e-03,  2.15800e-03, -9.92200e-04, -4.37400e-05],
                           [-2.02500e-01,  6.73500e-01,  1.71900e-01, -1.94600e-02, -1.84200e-02,  1.63900e-03,  1.36900e-03, -4.59000e-04],
                           [-3.80400e-01,  1.36400e-01,  6.12200e-02,  2.58900e-02, -4.72700e-03, -3.22200e-03,  3.55200e-04,  1.68500e-04],
                           [-1.40200e-01,  4.31900e-02, -2.84600e-02,  1.63800e-02,  7.71800e-03, -1.08700e-03, -1.05700e-03, -1.34300e-05],
                           [ 3.77000e-03,  3.09500e-02, -3.54400e-02, -6.80300e-04,  6.06300e-03,  1.28400e-03, -4.60500e-04, -2.06800e-04],
                           [ 3.73500e-02,  2.03900e-02, -1.42700e-02, -5.66400e-03,  1.00300e-03,  1.05300e-03,  2.40000e-04, -2.11900e-05],
                           [ 1.50200e-02,  1.04100e-02,  1.04000e-03, -3.88000e-03, -1.25600e-03,  2.74000e-04,  2.48900e-04,  7.86300e-05],
                           [-4.36000e-03,  5.62100e-03,  4.93800e-03, -1.45000e-03, -1.23200e-03, -9.15100e-06,  8.80800e-05,  2.21400e-05],
                           [-1.47700e-02,  2.67600e-03,  3.81900e-03, -1.97800e-04, -7.17800e-04, -2.59800e-05,  5.49700e-05, -1.84400e-05]])

# Reaction 9
chebyshev_reaction('O2 + gR (+ M) <=> gQOOH[O] (+ M)',
                   Tmin=180.0, Tmax=1500.0,
                   Pmin=(0.01, 'atm'), Pmax=(98.692, 'atm'),
                   coeffs=[[ 5.95300e+00, -3.58400e-01, -2.82600e-01, -9.62000e-03,  1.49300e-02, -2.14600e-04, -2.25700e-03,  2.65200e-04],
                           [-2.23100e-02,  1.10800e+00,  7.60400e-02, -2.61900e-02, -2.07500e-02,  3.02000e-03,  3.08900e-03, -7.17700e-04],
                           [-3.59000e-01,  4.35300e-01,  1.66400e-02,  1.57600e-02, -1.32200e-04, -4.19300e-03, -2.70600e-04,  7.01300e-04],
                           [-2.21700e-01,  1.41600e-01, -1.53800e-02,  2.97000e-03,  7.80900e-03,  1.69700e-04, -1.17800e-03, -1.58100e-04],
                           [-4.47800e-02,  5.76200e-02, -1.03600e-02, -9.92500e-03,  2.52900e-03,  2.45500e-03,  1.20600e-04, -3.45400e-04],
                           [ 3.12200e-02,  3.01400e-02,  1.65800e-03, -7.75400e-03, -2.35900e-03,  9.43400e-04,  6.88000e-04,  5.53500e-05],
                           [ 2.69500e-02,  2.04300e-02,  6.14100e-03, -2.75800e-03, -2.53100e-03, -3.43400e-04,  2.98600e-04,  1.61200e-04],
                           [ 5.75700e-03,  7.65400e-03,  5.73700e-03,  5.65700e-04, -1.05200e-03, -6.81600e-04, -5.40200e-05,  9.70600e-05],
                           [-7.78300e-03,  1.83100e-03,  3.80600e-03,  6.65600e-04,  8.90700e-06, -2.67600e-04, -1.59700e-04, -1.28900e-05],
                           [-8.87600e-03, -4.24400e-03,  2.22700e-03,  7.12100e-04,  1.93700e-04, -5.21200e-05, -8.10800e-05, -2.80900e-05]])
#  gRO2(+M) <=> gQOOHa(+M)                             1.000e+00 0.000     0.000
#      TCHEB/ 180.000   1500.000 /
#      PCHEB/ 0.010     98.692   /
#      CHEB/ 10 8/
#      CHEB/ -2.927e+00   3.291e-01    -9.454e-02   3.497e-03    2.673e-03   /
#      CHEB/ 3.874e-04    -1.542e-04   -6.199e-05   9.356e+00    5.925e-01   /
#      CHEB/ -1.609e-01   6.041e-04    5.794e-03    8.386e-04    -3.014e-04  /
#      CHEB/ -1.264e-04   3.460e-01    4.327e-01    -9.587e-02   -1.201e-02  /
#      CHEB/ 5.789e-03    1.163e-03    -2.787e-04   -1.342e-04   -1.992e-01  /
#      CHEB/ 2.573e-01    -3.264e-02   -1.927e-02   3.631e-03    1.689e-03   /
#      CHEB/ -1.831e-04   -1.517e-04   -1.410e-01   1.257e-01    3.886e-03   /
#      CHEB/ -1.674e-02   4.296e-05    1.906e-03    4.605e-05    -1.657e-04  /
#      CHEB/ -5.096e-02   5.217e-02    1.382e-02    -8.836e-03   -2.658e-03  /
#      CHEB/ 1.425e-03    3.335e-04    -1.397e-04   -2.304e-02   2.033e-02   /
#      CHEB/ 1.027e-02    -1.865e-03   -3.191e-03   4.928e-04    4.923e-04   /
#      CHEB/ -5.539e-05   -1.572e-02   9.036e-03    4.523e-03    1.436e-03   /
#      CHEB/ -2.142e-03   -2.955e-04   4.203e-04    5.003e-05    -9.354e-03  /
#      CHEB/ 4.992e-03    1.057e-03    1.853e-03    -8.078e-04   -5.911e-04  /
#      CHEB/ 1.991e-04    1.141e-04    -4.712e-03   2.894e-03    -1.488e-04  /
#      CHEB/ 1.160e-03    2.252e-05    -4.783e-04   -8.547e-06   1.087e-04   /
#  gQOOH[O](+M) <=> gQOOHa(+M)                         1.000e+00 0.000     0.000
#      TCHEB/ 180.000   1500.000 /
#      PCHEB/ 0.010     98.692   /
#      CHEB/ 10 8/
#      CHEB/ 2.837e+00    -6.764e-01   -2.750e-01   2.902e-02    9.888e-04   /
#      CHEB/ -1.597e-03   1.853e-04    1.550e-04    2.268e+00    1.722e+00   /
#      CHEB/ -1.756e-01   -3.807e-02   1.073e-02    7.315e-04    -6.262e-04  /
#      CHEB/ -5.832e-05   -4.834e-01   7.482e-01    5.142e-02    -4.440e-02  /
#      CHEB/ -2.505e-03   4.481e-03    1.393e-04    -6.015e-04   -5.195e-01  /
#      CHEB/ 2.818e-01    4.865e-02    -1.592e-02   -2.894e-03   1.909e-03   /
#      CHEB/ 4.040e-04    -1.887e-04   -1.886e-01   1.091e-01    2.552e-03   /
#      CHEB/ -2.763e-03   6.322e-04    1.015e-03    -1.540e-04   2.272e-05   /
#      CHEB/ -9.735e-03   4.128e-02    -1.208e-02   -1.952e-03   3.919e-04   /
#      CHEB/ 1.062e-03    1.031e-04    -9.594e-05   3.097e-02    1.881e-02   /
#      CHEB/ -8.498e-03   -1.428e-03   -1.562e-03   3.547e-04    5.954e-04   /
#      CHEB/ -3.017e-05   1.427e-02    1.014e-02    -7.970e-04   -3.453e-04  /
#      CHEB/ -2.047e-03   -5.295e-04   5.446e-04    1.503e-04    -4.454e-03  /
#      CHEB/ 5.883e-03    2.896e-03    6.531e-04    -1.222e-03   -8.272e-04  /