units(length='cm', time='s', quantity='mol', act_energy='kcal/mol')

ideal_gas(name='gas',
          elements="H D T C Ci O Oi N Ne Ar He Si S F Cl Br I X",
          species="""OH             bQOOH[O]       acetone
                     H2O            balkoxyketone  ibutenol
                     trisub_epoxy   bQOOHg         CH2O
                     galkene        O2             bR
                     bQOOHa         bRO2           disub_epoxy
                     HO2""",
          reactions='all',
          initial_state=state(temperature=300.0, pressure=OneAtm))

#-------------------------------------------------------------------------------
# Element data
#-------------------------------------------------------------------------------

element(symbol='Ci', atomic_mass=13.003)
element(symbol='D', atomic_mass=2.014)
element(symbol='Oi', atomic_mass=18.0)
element(symbol='T', atomic_mass=3.016)
element(symbol='X', atomic_mass=195.083)
#-------------------------------------------------------------------------------
# Species data
#-------------------------------------------------------------------------------

species(name='OH',
        atoms='H:1 O:1',
        thermo=(NASA([10.00, 984.14],
                     [ 3.49686242E+00,  1.83973160E-04, -9.97634499E-07,
                       1.56942783E-09, -6.10128175E-13,  3.41673934E+03,
                       1.48093120E+00]),
                NASA([984.14, 3000.00],
                     [ 3.45221464E+00, -2.95124034E-04,  7.39418622E-07,
                      -2.89309866E-10,  3.53041498E-14,  3.45751599E+03,
                       1.85813897E+00])))

species(name='bQOOH[O]',
        atoms='C:4 H:9 O:3',
        thermo=(NASA([10.00, 338.69],
                     [ 3.60915854E+00,  3.39069566E-02,  2.22227265E-04,
                      -8.23527342E-07,  8.56246333E-10, -2.44289133E+04,
                       1.23284605E+01]),
                NASA([338.69, 3000.00],
                     [ 5.03198881E+00,  5.46235886E-02, -3.56935806E-05,
                       1.12371751E-08, -1.35390171E-12, -2.47404961E+04,
                       3.82760723E+00])))

species(name='acetone',
        atoms='C:3 H:6 O:1',
        thermo=(NASA([10.00, 414.35],
                     [ 3.73496166E+00,  3.05743218E-02, -1.26253585E-04,
                       3.66080978E-07, -3.31430437E-10, -2.63031239E+04,
                       8.24936012E+00]),
                NASA([414.35, 3000.00],
                     [ 1.70010292E-01,  3.28431468E-02, -1.80960132E-05,
                       4.82960690E-09, -5.02388538E-13, -2.57317408E+04,
                       2.56372653E+01])))

species(name='H2O',
        atoms='H:2 O:1',
        thermo=(NASA([10.00, 773.84],
                     [ 4.00473541E+00, -2.39729134E-04,  8.11862955E-07,
                       1.47891862E-09, -1.19783539E-12, -3.03533807E+04,
                      -9.96254147E-02]),
                NASA([773.84, 3000.00],
                     [ 3.52133374E+00,  1.05377009E-03,  6.40722099E-07,
                      -3.86240235E-10,  5.49243294E-14, -3.02424794E+04,
                       2.34173094E+00])))

species(name='balkoxyketone',
        atoms='C:4 H:7 O:2',
        thermo=(NASA([10.00, 269.93],
                     [ 3.81931151E+00,  1.68519318E-02,  2.42742224E-04,
                      -9.64821161E-07,  1.18509335E-09, -1.84961172E+04,
                       1.20521854E+01]),
                NASA([269.93, 3000.00],
                     [ 3.57555944E+00,  4.28868089E-02, -2.65390705E-05,
                       7.99659117E-09, -9.32983470E-13, -1.85646453E+04,
                       1.13957990E+01])))

species(name='ibutenol',
        atoms='C:4 H:8 O:1',
        thermo=(NASA([10.00, 135.97],
                     [ 3.95714996E+00,  5.72646980E-03,  4.63611760E-04,
                      -3.04137514E-06,  6.85019471E-09, -2.28277011E+04,
                       8.21931848E+00]),
                NASA([135.97, 3000.00],
                     [ 3.32467612E+00,  3.69033556E-02, -1.89960416E-05,
                       4.73417677E-09, -4.59705291E-13, -2.28221224E+04,
                       9.58133237E+00])))

species(name='trisub_epoxy',
        atoms='C:4 H:8 O:2',
        thermo=(NASA([10.00, 209.19],
                     [ 3.75295042E+00,  2.37546930E-02,  1.26610110E-04,
                      -4.78364365E-07,  5.79468168E-10, -4.01293853E+04,
                       1.12739684E+01]),
                NASA([209.19, 3000.00],
                     [ 2.64185254E+00,  4.50006531E-02, -2.57361066E-05,
                       7.15266054E-09, -7.72980731E-13, -4.00828997E+04,
                       1.48960343E+01])))

species(name='bQOOHg',
        atoms='C:4 H:9 O:3',
        thermo=(NASA([10.00, 441.09],
                     [ 3.56595280E+00,  3.36073467E-02,  2.03462772E-04,
                      -5.98977617E-07,  4.83271168E-10, -2.33433651E+04,
                       1.33537891E+01]),
                NASA([441.09, 3000.00],
                     [ 6.09031192E+00,  5.80517622E-02, -4.06392697E-05,
                       1.32574026E-08, -1.62501077E-12, -2.40265506E+04,
                      -1.97849715E+00])))

species(name='CH2O',
        atoms='C:1 H:2 O:1',
        thermo=(NASA([10.00, 601.31],
                     [ 4.03190845E+00, -1.93233367E-03,  8.89743345E-06,
                       2.98105926E-09, -7.90813886E-12, -1.42276270E+04,
                       3.47574660E+00]),
                NASA([601.31, 3000.00],
                     [ 1.40134195E+00,  9.48858016E-03, -4.43088317E-06,
                       9.48452194E-10, -7.43790219E-14, -1.38013869E+04,
                       1.57423780E+01])))

species(name='galkene',
        atoms='C:4 H:8 O:1',
        thermo=(NASA([10.00, 383.47],
                     [ 3.84035604E+00,  1.20378740E-02,  1.87486319E-04,
                      -5.44759148E-07,  4.80711015E-10, -2.09706596E+04,
                       1.02570291E+01]),
                NASA([383.47, 3000.00],
                     [ 4.00413385E+00,  3.79025144E-02, -2.15435710E-05,
                       6.15213311E-09, -6.97446345E-13, -2.11859490E+04,
                       6.98052628E+00])))

species(name='O2',
        atoms='O:2',
        thermo=(NASA([10.00, 605.96],
                     [ 3.50743498E+00, -4.43860349E-04,  1.45938058E-06,
                       1.61509333E-09, -2.32050052E-12, -9.24756224E+02,
                       4.72183634E+00]),
                NASA([605.96, 3000.00],
                     [ 2.87462882E+00,  2.17840991E-03, -1.18262921E-06,
                       2.86910493E-10, -2.53297146E-14, -8.19517838E+02,
                       7.69331810E+00])))

species(name='bR',
        atoms='C:4 H:9 O:1',
        thermo=(NASA([10.00, 483.43],
                     [ 3.38164846E+00,  5.97142637E-02, -1.58320095E-04,
                       3.04908893E-07, -2.13091806E-10, -1.25095164E+04,
                       1.09226843E+01]),
                NASA([483.43, 3000.00],
                     [ 2.33428824E+00,  4.22094427E-02, -2.28029290E-05,
                       6.04614564E-09, -6.30240159E-13, -1.21024345E+04,
                       1.83772893E+01])))

species(name='bQOOHa',
        atoms='C:4 H:9 O:3',
        thermo=(NASA([10.00, 390.53],
                     [ 3.54969236E+00,  3.76592474E-02,  1.76622653E-04,
                      -5.98063750E-07,  5.45069236E-10, -2.72854763E+04,
                       1.31518761E+01]),
                NASA([390.53, 3000.00],
                     [ 5.33564209E+00,  5.64935715E-02, -3.83214298E-05,
                       1.22990604E-08, -1.49549987E-12, -2.77080863E+04,
                       2.59015836E+00])))

species(name='bRO2',
        atoms='C:4 H:9 O:3',
        thermo=(NASA([10.00, 461.39],
                     [ 3.53964713E+00,  3.88723795E-02,  9.57420148E-05,
                      -2.80380499E-07,  2.09647462E-10, -3.33564739E+04,
                       1.18803618E+01]),
                NASA([461.39, 3000.00],
                     [ 3.47201723E+00,  6.00510247E-02, -4.00567321E-05,
                       1.25663813E-08, -1.49496682E-12, -3.35694206E+04,
                       9.77903975E+00])))

species(name='disub_epoxy',
        atoms='C:4 H:8 O:2',
        thermo=(NASA([10.00, 549.41],
                     [ 3.89863211E+00,  5.97532637E-03,  1.66685676E-04,
                      -3.10743768E-07,  1.78330192E-10, -3.51892323E+04,
                       1.13847308E+01]),
                NASA([549.41, 3000.00],
                     [-6.40277648E-01,  6.05960003E-02, -4.13427220E-05,
                       1.31555461E-08, -1.57685017E-12, -3.50161154E+04,
                       2.76005436E+01])))

species(name='HO2',
        atoms='H:1 O:2',
        thermo=(NASA([10.00, 891.11],
                     [ 4.02887004E+00, -1.75769289E-03,  1.08726004E-05,
                      -1.13812972E-08,  3.90113097E-12,  4.95165001E+02,
                       4.69302008E+00]),
                NASA([891.11, 3000.00],
                     [ 3.06571044E+00,  4.28505005E-03, -2.19325920E-06,
                       5.58882699E-10, -5.61246669E-14,  5.98557610E+02,
                       8.84564156E+00])))

#-------------------------------------------------------------------------------
# Reaction data
#-------------------------------------------------------------------------------

# Reaction 1
chebyshev_reaction('bQOOHg (+ M) <=> bRO2 (+ M)',
                   Tmin=180.0, Tmax=1500.0,
                   Pmin=(0.01, 'atm'), Pmax=(98.692, 'atm'),
                   coeffs=[[-9.86200e-01,  1.50600e+00,  5.64300e-02,  7.70000e-04, -1.21700e-02, -3.27400e-03,  4.03900e-04,  6.05100e-04],
                           [-2.64500e+00,  1.78600e+00,  2.01700e-01,  8.64400e-03, -1.68000e-02, -5.80900e-03,  6.14700e-04,  8.06100e-04],
                           [-2.50900e+00,  3.65900e-01,  4.72200e-02,  4.40900e-02,  3.48600e-03, -3.06500e-03, -6.52600e-04,  8.80200e-05],
                           [-1.35800e+00, -1.37100e-01, -7.89700e-02,  2.12300e-02,  1.31900e-02,  2.05800e-03, -7.77800e-04, -5.14800e-04],
                           [-6.64200e-01, -9.45900e-02, -4.86300e-02,  7.59700e-04,  4.08400e-03,  1.57800e-03, -7.72400e-05, -2.05200e-04],
                           [-3.32900e-01, -7.75900e-03,  1.93600e-02,  7.72100e-03, -9.01300e-04, -1.81600e-03, -6.55200e-04,  1.33300e-04],
                           [-2.18900e-01, -2.98800e-03,  3.47300e-02,  1.43500e-02,  2.32400e-03, -1.57500e-03, -1.11000e-03, -1.01000e-04],
                           [-1.55700e-01, -3.39400e-02,  1.47100e-02,  8.57200e-03,  4.15300e-03,  6.53600e-04, -3.90300e-04, -2.56200e-04],
                           [-1.10000e-01, -4.70100e-02, -5.62100e-03,  1.69200e-03,  2.45200e-03,  1.25700e-03,  2.45800e-04, -1.11600e-04],
                           [-5.33100e-02, -4.24700e-02, -1.12800e-02, -1.68300e-04,  1.23800e-03,  5.19400e-04,  5.54000e-05, -6.27400e-05]])

# Reaction 2
chebyshev_reaction('bQOOHa (+ M) <=> bRO2 (+ M)',
                   Tmin=180.0, Tmax=1500.0,
                   Pmin=(0.01, 'atm'), Pmax=(98.692, 'atm'),
                   coeffs=[[-5.10600e-01,  1.94500e+00, -2.02400e-01,  3.92600e-02, -6.69200e-04, -7.84600e-03,  2.34400e-03,  3.28000e-04],
                           [-7.35900e-01,  1.00100e+00,  3.92000e-01, -4.58900e-02, -1.36700e-02,  4.52300e-03, -1.66600e-03,  3.75600e-04],
                           [-2.58300e+00,  2.44000e-02,  6.59600e-02,  4.27000e-02,  4.68300e-03, -2.47000e-04, -1.25800e-03, -4.77000e-04],
                           [-1.35100e+00, -1.82700e-01, -6.99800e-02,  1.84400e-02,  1.24900e-02,  1.38600e-03, -8.98000e-04, -4.08400e-04],
                           [-7.33500e-01, -2.21800e-02, -4.76300e-02,  1.09800e-03,  4.02800e-03, -1.05300e-03,  1.87100e-04,  2.52900e-04],
                           [-3.10700e-01, -8.30500e-03,  3.36800e-02,  4.97100e-03, -4.56400e-03, -4.30100e-04, -1.90700e-05, -6.66500e-05],
                           [-2.49000e-01,  4.39900e-02,  2.00000e-02,  8.35200e-03,  2.41300e-03, -4.78300e-04, -2.54000e-04, -1.79700e-04],
                           [-1.53600e-01, -1.28100e-02,  7.72200e-03,  5.20500e-03,  4.10300e-03,  1.34600e-03, -2.04200e-04, -2.74700e-04],
                           [-8.64900e-02, -5.67800e-02, -2.32700e-03,  2.40500e-03,  2.46600e-03,  1.44900e-03, -1.48300e-05, -1.98300e-04],
                           [-5.71700e-02, -4.72400e-02, -1.24600e-02,  2.00000e-03,  1.64000e-03,  2.84200e-04, -8.49700e-06, -6.40400e-05]])

# Reaction 3
chebyshev_reaction('bQOOH[O] (+ M) <=> bRO2 (+ M)',
                   Tmin=180.0, Tmax=1500.0,
                   Pmin=(0.01, 'atm'), Pmax=(98.692, 'atm'),
                   coeffs=[[ 5.45200e+00,  1.61000e+00, -1.18900e-01, -1.67900e-02,  8.52200e-04,  1.82000e-03,  1.40300e-04, -1.50200e-04],
                           [-4.44200e+00,  7.17300e-01,  1.52300e-01,  1.12500e-02, -5.92300e-03, -3.13000e-03,  1.09500e-04,  4.26900e-04],
                           [-2.99000e+00, -5.54100e-02, -4.83900e-03,  1.52200e-02,  7.30700e-03,  1.24800e-03, -6.33800e-04, -3.70000e-04],
                           [-1.40900e+00, -1.54100e-02, -2.36000e-02, -8.93500e-03, -2.44600e-04,  1.56700e-03,  6.46700e-04,  3.91000e-06],
                           [-6.91500e-01,  6.46900e-02,  1.76300e-02,  2.92500e-03, -1.75600e-03, -1.13400e-03, -2.12300e-04,  3.80800e-05],
                           [-3.82700e-01,  2.00200e-02,  2.84300e-02,  1.05100e-02,  3.57800e-03,  2.74600e-04, -5.80200e-04, -3.36400e-04],
                           [-2.36200e-01, -3.59600e-02,  8.13100e-03,  9.22100e-03,  3.87200e-03,  1.31300e-03,  7.80300e-05, -2.35300e-04],
                           [-1.57600e-01, -4.26200e-02, -7.71400e-04,  3.44200e-03,  1.82200e-03,  6.17600e-04,  8.41600e-05, -5.39800e-05],
                           [-8.79300e-02, -4.34300e-02, -2.85500e-03,  3.15800e-03,  1.57400e-03,  1.19000e-04, -2.70500e-04, -1.48800e-04],
                           [-2.99700e-02, -4.84500e-02, -8.51100e-03,  4.34300e-03,  2.59800e-03,  5.02500e-04, -2.47300e-04, -2.17000e-04]])

# Reaction 4
chebyshev_reaction('O2 + bR (+ M) <=> bRO2 (+ M)',
                   Tmin=180.0, Tmax=1500.0,
                   Pmin=(0.01, 'atm'), Pmax=(98.692, 'atm'),
                   coeffs=[[ 1.00500e+01,  6.09000e-01, -1.30300e-01,  2.22100e-02, -3.89900e-03,  6.45100e-04, -1.55700e-04,  8.01700e-05],
                           [-1.29200e+00,  1.02200e+00, -1.64100e-01,  7.41800e-03,  4.17300e-03, -2.02400e-03,  4.75100e-04,  8.46600e-06],
                           [-9.28600e-01,  6.94000e-01, -3.82800e-02, -2.29400e-02,  7.93300e-03, -1.43400e-03,  1.67700e-05,  1.39200e-04],
                           [-6.96500e-01,  3.87600e-01,  4.56000e-02, -2.80600e-02,  3.30900e-03,  6.61300e-04, -3.60300e-04,  1.01800e-04],
                           [-4.90900e-01,  1.69800e-01,  7.39100e-02, -1.57100e-02, -2.53400e-03,  1.47600e-03, -1.22500e-04, -6.61500e-05],
                           [-3.32500e-01,  3.90000e-02,  6.64600e-02, -6.86600e-04, -4.71800e-03,  7.04500e-04,  2.67800e-04, -1.34800e-04],
                           [-2.16400e-01, -3.00400e-02,  4.55900e-02,  8.70900e-03, -3.24400e-03, -4.47000e-04,  3.35500e-04, -6.76200e-05],
                           [-1.33900e-01, -5.89200e-02,  2.32800e-02,  1.21000e-02, -5.88200e-04, -9.55100e-04,  6.23200e-05,  1.53300e-05],
                           [-7.62400e-02, -6.48300e-02,  5.65300e-03,  1.10700e-02,  1.70800e-03, -8.21700e-04, -2.54500e-04,  2.12100e-05],
                           [-3.78100e-02, -5.72600e-02, -6.47200e-03,  8.06500e-03,  2.90600e-03, -3.72700e-04, -4.24700e-04, -2.90600e-05]])
#  bRO2(+M) <=> bQOOHg(+M)                             1.000e+00 0.000     0.000
#      TCHEB/ 180.000   1500.000 /
#      PCHEB/ 0.010     98.692   /
#      CHEB/ 10 8/
#      CHEB/ -1.356e+01   1.506e+00    5.643e-02    7.700e-04    -1.217e-02  /
#      CHEB/ -3.274e-03   4.039e-04    6.051e-04    8.378e+00    1.786e+00   /
#      CHEB/ 2.017e-01    8.644e-03    -1.680e-02   -5.809e-03   6.147e-04   /
#      CHEB/ 8.061e-04    -2.363e+00   3.659e-01    4.722e-02    4.409e-02   /
#      CHEB/ 3.486e-03    -3.065e-03   -6.526e-04   8.802e-05    -1.321e+00  /
#      CHEB/ -1.371e-01   -7.897e-02   2.123e-02    1.319e-02    2.058e-03   /
#      CHEB/ -7.778e-04   -5.148e-04   -6.585e-01   -9.459e-02   -4.863e-02  /
#      CHEB/ 7.597e-04    4.084e-03    1.578e-03    -7.724e-05   -2.052e-04  /
#      CHEB/ -3.330e-01   -7.759e-03   1.936e-02    7.721e-03    -9.013e-04  /
#      CHEB/ -1.816e-03   -6.552e-04   1.333e-04    -2.195e-01   -2.988e-03  /
#      CHEB/ 3.473e-02    1.435e-02    2.324e-03    -1.575e-03   -1.110e-03  /
#      CHEB/ -1.010e-04   -1.562e-01   -3.394e-02   1.471e-02    8.572e-03   /
#      CHEB/ 4.153e-03    6.536e-04    -3.903e-04   -2.562e-04   -1.103e-01  /
#      CHEB/ -4.701e-02   -5.621e-03   1.692e-03    2.452e-03    1.257e-03   /
#      CHEB/ 2.458e-04    -1.116e-04   -5.350e-02   -4.247e-02   -1.128e-02  /
#      CHEB/ -1.683e-04   1.238e-03    5.194e-04    5.540e-05    -6.274e-05  /

# Reaction 5
chebyshev_reaction('bQOOHa (+ M) <=> bQOOHg (+ M)',
                   Tmin=180.0, Tmax=1500.0,
                   Pmin=(0.01, 'atm'), Pmax=(98.692, 'atm'),
                   coeffs=[[-1.60000e+01,  2.56100e+00,  1.24100e-02, -5.15900e-02, -2.94900e-02, -2.52500e-03,  3.14700e-03,  4.10500e-04],
                           [ 1.77000e+00,  1.85200e+00,  6.09700e-01,  8.41000e-02, -2.47200e-02, -1.49700e-02, -1.34500e-03,  1.82100e-03],
                           [-2.85200e+00, -4.41400e-01, -1.36100e-01,  8.15100e-02,  3.75500e-02,  3.76700e-03, -3.78000e-03, -1.10600e-03],
                           [-1.41000e+00, -4.60300e-01, -2.12200e-01, -6.46100e-03,  1.05900e-02,  4.61000e-03,  1.54700e-03, -3.62000e-05],
                           [-5.34000e-01, -3.56900e-02, -6.02700e-02, -1.23500e-02, -5.06700e-03, -2.66500e-03,  1.44400e-04,  2.72600e-04],
                           [-1.91800e-01,  7.75000e-02,  5.77900e-02,  1.13700e-02, -2.40100e-03, -3.03500e-03, -2.19600e-03, -2.73000e-04],
                           [-1.53300e-01,  6.70800e-02,  4.86300e-02,  2.22900e-02,  6.61600e-03, -1.17000e-03, -1.45500e-03, -4.37000e-04],
                           [-1.33900e-01, -1.88200e-02,  1.52700e-02,  1.20300e-02,  7.58800e-03,  1.94600e-03, -1.11200e-04, -2.55700e-04],
                           [-1.06400e-01, -5.61900e-02, -8.99100e-03,  2.42000e-05,  3.25700e-03,  2.47800e-03,  5.26900e-04, -1.02600e-04],
                           [-5.84800e-02, -5.42800e-02, -1.68600e-02, -1.36600e-03,  3.24300e-04,  4.23100e-04,  3.43900e-04,  1.67700e-05]])

# Reaction 6
chebyshev_reaction('bQOOH[O] (+ M) <=> bQOOHg (+ M)',
                   Tmin=180.0, Tmax=1500.0,
                   Pmin=(0.01, 'atm'), Pmax=(98.692, 'atm'),
                   coeffs=[[-1.00300e+01,  2.06900e+00,  3.47000e-02, -7.34400e-02, -2.82900e-02, -8.98800e-04,  2.34700e-03,  8.77600e-04],
                           [-2.24100e+00,  1.63400e+00,  4.20400e-01,  1.13800e-01, -1.83800e-02, -1.89600e-02, -2.43100e-03,  1.53900e-03],
                           [-3.11300e+00, -2.26400e-01, -1.76200e-01,  3.36400e-02,  3.54400e-02,  1.05500e-02, -1.07100e-03, -1.94200e-03],
                           [-1.45300e+00, -2.56800e-01, -1.86200e-01, -3.40000e-02,  1.13000e-03,  6.29400e-03,  3.74300e-03,  6.17800e-04],
                           [-5.56700e-01,  2.56400e-02, -1.00100e-02, -8.16800e-03, -8.10800e-03, -4.85400e-03, -1.04400e-03,  6.62600e-04],
                           [-2.55500e-01,  8.60500e-02,  6.26500e-02,  2.72600e-02,  1.57400e-03, -4.29500e-03, -2.84400e-03, -6.05100e-04],
                           [-1.77400e-01, -1.13500e-03,  4.84900e-02,  2.32800e-02,  7.86800e-03,  4.05700e-04, -1.14600e-03, -5.96300e-04],
                           [-1.58000e-01, -4.03500e-02,  1.13200e-02,  7.41000e-03,  4.98400e-03,  1.88100e-03,  4.27500e-04, -2.47600e-05],
                           [-1.12800e-01, -4.55000e-02, -9.49700e-03, -5.03600e-04,  1.51800e-03,  1.30800e-03,  4.40500e-04,  3.30900e-05],
                           [-4.29600e-02, -5.47800e-02, -1.20400e-02,  2.04800e-04,  9.82100e-04,  2.22900e-04,  1.45500e-05, -4.89300e-05]])

# Reaction 7
chebyshev_reaction('O2 + bR (+ M) <=> bQOOHg (+ M)',
                   Tmin=180.0, Tmax=1500.0,
                   Pmin=(0.01, 'atm'), Pmax=(98.692, 'atm'),
                   coeffs=[[-2.43300e+00,  2.71800e+00,  3.03900e-01, -1.94900e-01, -1.42000e-01, -3.99900e-03,  3.12600e-02,  1.25500e-02],
                           [-1.67900e+00,  3.73100e-01, -1.86500e-02,  2.49000e-01,  9.76900e-02, -2.13800e-02, -3.50500e-02, -1.03100e-02],
                           [-1.18900e+00, -1.38800e-01, -2.00000e-01,  3.65000e-02,  6.20700e-02,  9.98800e-03, -3.75200e-03, -3.45800e-03],
                           [-6.21800e-01, -4.70400e-02, -1.17500e-01, -6.85300e-02,  1.14300e-02,  1.14100e-02,  5.09800e-03,  8.70900e-04],
                           [-2.49600e-01,  8.52600e-02,  2.80400e-02, -5.86500e-02, -1.66100e-02,  1.54500e-03,  3.05000e-03,  1.95900e-03],
                           [-1.08300e-01,  9.85600e-02,  9.48300e-02, -1.22600e-02, -1.64800e-02, -4.00900e-03, -2.83800e-04,  9.55200e-04],
                           [-8.35800e-02,  3.90800e-02,  7.92600e-02,  1.55000e-02, -5.26800e-03, -2.96400e-03, -1.41100e-03, -2.51500e-04],
                           [-8.29200e-02, -2.08300e-02,  3.97800e-02,  2.18500e-02,  1.41800e-03, -1.31600e-03, -1.21800e-03, -3.51400e-04],
                           [-6.33300e-02, -5.33700e-02,  9.51600e-03,  1.62500e-02,  3.23200e-03, -7.42400e-05, -7.07800e-04, -3.02000e-04],
                           [-4.28700e-02, -5.05000e-02, -5.00500e-03,  1.18400e-02,  3.33600e-03, -1.48600e-04, -6.96300e-04, -1.65700e-04]])
#  bRO2(+M) <=> bQOOHa(+M)                             1.000e+00 0.000     0.000
#      TCHEB/ 180.000   1500.000 /
#      PCHEB/ 0.010     98.692   /
#      CHEB/ 10 8/
#      CHEB/ -7.865e+00   1.945e+00    -2.024e-01   3.926e-02    -6.692e-04  /
#      CHEB/ -7.846e-03   2.344e-03    3.280e-04    5.954e+00    1.001e+00   /
#      CHEB/ 3.920e-01    -4.589e-02   -1.367e-02   4.523e-03    -1.666e-03  /
#      CHEB/ 3.756e-04    -2.528e+00   2.440e-02    6.596e-02    4.270e-02   /
#      CHEB/ 4.683e-03    -2.470e-04   -1.258e-03   -4.770e-04   -1.350e+00  /
#      CHEB/ -1.827e-01   -6.998e-02   1.844e-02    1.249e-02    1.386e-03   /
#      CHEB/ -8.980e-04   -4.084e-04   -7.384e-01   -2.218e-02   -4.763e-02  /
#      CHEB/ 1.098e-03    4.028e-03    -1.053e-03   1.871e-04    2.529e-04   /
#      CHEB/ -3.134e-01   -8.305e-03   3.368e-02    4.971e-03    -4.564e-03  /
#      CHEB/ -4.301e-04   -1.907e-05   -6.665e-05   -2.503e-01   4.399e-02   /
#      CHEB/ 2.000e-02    8.352e-03    2.413e-03    -4.783e-04   -2.540e-04  /
#      CHEB/ -1.797e-04   -1.543e-01   -1.281e-02   7.722e-03    5.205e-03   /
#      CHEB/ 4.103e-03    1.346e-03    -2.042e-04   -2.747e-04   -8.683e-02  /
#      CHEB/ -5.678e-02   -2.327e-03   2.405e-03    2.466e-03    1.449e-03   /
#      CHEB/ -1.483e-05   -1.983e-04   -5.729e-02   -4.724e-02   -1.246e-02  /
#      CHEB/ 2.000e-03    1.640e-03    2.842e-04    -8.497e-06   -6.404e-05  /
#  bQOOHg(+M) <=> bQOOHa(+M)                           1.000e+00 0.000     0.000
#      TCHEB/ 180.000   1500.000 /
#      PCHEB/ 0.010     98.692   /
#      CHEB/ 10 8/
#      CHEB/ -1.078e+01   2.561e+00    1.241e-02    -5.159e-02   -2.949e-02  /
#      CHEB/ -2.525e-03   3.147e-03    4.105e-04    -2.563e+00   1.852e+00   /
#      CHEB/ 6.097e-01    8.410e-02    -2.472e-02   -1.497e-02   -1.345e-03  /
#      CHEB/ 1.821e-03    -2.943e+00   -4.414e-01   -1.361e-01   8.151e-02   /
#      CHEB/ 3.755e-02    3.767e-03    -3.780e-03   -1.106e-03   -1.446e+00  /
#      CHEB/ -4.603e-01   -2.122e-01   -6.461e-03   1.059e-02    4.610e-03   /
#      CHEB/ 1.547e-03    -3.620e-05   -5.446e-01   -3.569e-02   -6.027e-02  /
#      CHEB/ -1.235e-02   -5.067e-03   -2.665e-03   1.444e-04    2.726e-04   /
#      CHEB/ -1.944e-01   7.750e-02    5.779e-02    1.137e-02    -2.401e-03  /
#      CHEB/ -3.035e-03   -2.196e-03   -2.730e-04   -1.541e-01   6.708e-02   /
#      CHEB/ 4.863e-02    2.229e-02    6.616e-03    -1.170e-03   -1.455e-03  /
#      CHEB/ -4.370e-04   -1.342e-01   -1.882e-02   1.527e-02    1.203e-02   /
#      CHEB/ 7.588e-03    1.946e-03    -1.112e-04   -2.557e-04   -1.064e-01  /
#      CHEB/ -5.619e-02   -8.991e-03   2.420e-05    3.257e-03    2.478e-03   /
#      CHEB/ 5.269e-04    -1.026e-04   -5.842e-02   -5.428e-02   -1.686e-02  /
#      CHEB/ -1.366e-03   3.243e-04    4.231e-04    3.439e-04    1.677e-05   /

# Reaction 8
chebyshev_reaction('bQOOH[O] (+ M) <=> bQOOHa (+ M)',
                   Tmin=180.0, Tmax=1500.0,
                   Pmin=(0.01, 'atm'), Pmax=(98.692, 'atm'),
                   coeffs=[[-4.85600e+00,  2.23200e+00, -2.03400e-01, -3.19900e-02, -1.75500e-02, -4.29300e-03,  3.76200e-03,  9.22100e-04],
                           [-4.09800e+00,  1.14800e+00,  5.26200e-01,  3.19100e-02, -1.02800e-02, -4.97700e-03, -3.58900e-03,  4.22600e-04],
                           [-3.26300e+00, -5.80600e-01, -1.05200e-01,  5.01800e-02,  2.94300e-02,  8.07300e-03, -1.46300e-03, -1.89900e-03],
                           [-1.50000e+00, -3.02200e-01, -1.43500e-01, -1.92500e-02,  2.75300e-03,  2.97000e-03,  1.67900e-03,  5.28200e-04],
                           [-6.33200e-01,  8.06400e-02, -1.39800e-02, -5.24300e-03, -7.02000e-03, -4.96400e-03, -3.19200e-04,  6.29000e-04],
                           [-2.83000e-01,  8.83900e-02,  5.86900e-02,  1.19100e-02,  3.66300e-04, -9.06900e-04, -1.35600e-03, -5.51000e-04],
                           [-1.96000e-01,  3.38200e-02,  2.62100e-02,  1.52400e-02,  6.36400e-03,  1.48300e-03, -1.13900e-04, -4.88200e-04],
                           [-1.48400e-01, -2.33900e-02,  6.04800e-03,  5.14800e-03,  4.26400e-03,  1.80800e-03,  1.94000e-04, -1.14300e-04],
                           [-9.21300e-02, -5.48100e-02, -2.70400e-03,  1.11000e-03,  1.51600e-03,  9.00700e-04, -2.86400e-06, -8.46700e-05],
                           [-3.55900e-02, -5.91400e-02, -1.21100e-02,  2.93200e-03,  1.24300e-03,  1.90500e-04, -4.77500e-05, -1.23300e-04]])

# Reaction 9
chebyshev_reaction('O2 + bR (+ M) <=> bQOOHa (+ M)',
                   Tmin=180.0, Tmax=1500.0,
                   Pmin=(0.01, 'atm'), Pmax=(98.692, 'atm'),
                   coeffs=[[ 8.42500e-01,  2.50100e+00,  1.76100e-01, -8.01400e-03, -6.50300e-02, -1.62000e-02,  1.00200e-03, -5.32700e-04],
                           [-1.93100e+00, -5.41900e-02, -1.88800e-01,  7.45200e-02,  6.97600e-02,  1.38100e-02, -1.86100e-03,  1.90000e-04],
                           [-1.25200e+00,  8.13800e-02, -1.62900e-01, -1.66100e-02,  1.05400e-02, -8.71400e-05,  1.56600e-03,  1.16700e-03],
                           [-7.28700e-01,  1.92800e-01, -3.76800e-02, -4.59300e-02, -2.30100e-03, -1.53500e-03, -6.28600e-04,  3.68500e-05],
                           [-3.89700e-01,  2.12300e-01,  5.15800e-02, -2.40000e-02, -5.19200e-03, -1.33600e-03, -7.32500e-04, -2.70100e-04],
                           [-1.96600e-01,  1.06000e-01,  9.54600e-02,  2.06800e-04, -5.31100e-03,  8.74300e-04, -6.12300e-04, -4.70100e-04],
                           [-1.45200e-01,  2.91800e-02,  6.27500e-02,  1.76100e-02,  4.00600e-04, -4.15300e-04,  1.77900e-04, -1.80200e-04],
                           [-1.03500e-01, -4.56800e-02,  2.86200e-02,  1.58700e-02,  2.58400e-03,  2.45200e-04,  2.12800e-04, -4.85700e-06],
                           [-7.45000e-02, -7.79600e-02,  4.16400e-03,  1.00000e-02,  2.47000e-03,  3.00800e-04,  5.61500e-05,  2.66300e-05],
                           [-4.28800e-02, -6.51100e-02, -1.33600e-02,  5.46900e-03,  1.90300e-03, -3.36500e-04, -9.45900e-05,  6.83300e-05]])
#  bRO2(+M) <=> bQOOH[O](+M)                           1.000e+00 0.000     0.000
#      TCHEB/ 180.000   1500.000 /
#      PCHEB/ 0.010     98.692   /
#      CHEB/ 10 8/
#      CHEB/ -6.171e+00   1.610e+00    -1.189e-01   -1.679e-02   8.522e-04   /
#      CHEB/ 1.820e-03    1.403e-04    -1.502e-04   5.158e+00    7.173e-01   /
#      CHEB/ 1.523e-01    1.125e-02    -5.923e-03   -3.130e-03   1.095e-04   /
#      CHEB/ 4.269e-04    -2.996e+00   -5.541e-02   -4.839e-03   1.522e-02   /
#      CHEB/ 7.307e-03    1.248e-03    -6.338e-04   -3.700e-04   -1.430e+00  /
#      CHEB/ -1.541e-02   -2.360e-02   -8.935e-03   -2.446e-04   1.567e-03   /
#      CHEB/ 6.467e-04    3.910e-06    -7.023e-01   6.469e-02    1.763e-02   /
#      CHEB/ 2.925e-03    -1.756e-03   -1.134e-03   -2.123e-04   3.808e-05   /
#      CHEB/ -3.866e-01   2.002e-02    2.843e-02    1.051e-02    3.578e-03   /
#      CHEB/ 2.746e-04    -5.802e-04   -3.364e-04   -2.377e-01   -3.596e-02  /
#      CHEB/ 8.131e-03    9.221e-03    3.872e-03    1.313e-03    7.803e-05   /
#      CHEB/ -2.353e-04   -1.583e-01   -4.262e-02   -7.714e-04   3.442e-03   /
#      CHEB/ 1.822e-03    6.176e-04    8.416e-05    -5.398e-05   -8.811e-02  /
#      CHEB/ -4.343e-02   -2.855e-03   3.158e-03    1.574e-03    1.190e-04   /
#      CHEB/ -2.705e-04   -1.488e-04   -2.996e-02   -4.845e-02   -8.511e-03  /
#      CHEB/ 4.343e-03    2.598e-03    5.025e-04    -2.473e-04   -2.170e-04  /
#  bQOOHg(+M) <=> bQOOH[O](+M)                         1.000e+00 0.000     0.000
#      TCHEB/ 180.000   1500.000 /
#      PCHEB/ 0.010     98.692   /
#      CHEB/ 10 8/
#      CHEB/ -9.073e+00   2.069e+00    3.470e-02    -7.344e-02   -2.829e-02  /
#      CHEB/ -8.988e-04   2.347e-03    8.776e-04    -3.665e+00   1.634e+00   /
#      CHEB/ 4.204e-01    1.138e-01    -1.838e-02   -1.896e-02   -2.431e-03  /
#      CHEB/ 1.539e-03    -3.265e+00   -2.264e-01   -1.762e-01   3.364e-02   /
#      CHEB/ 3.544e-02    1.055e-02    -1.071e-03   -1.942e-03   -1.511e+00  /