units(length='cm', time='s', quantity='mol', act_energy='kcal/mol')

ideal_gas(name='gas',
          elements="H D T C Ci O Oi N Ne Ar He Si S F Cl Br I X",
          species="""aOOHbalkene      OH               ibutanal
                     aR               performic_acid   disub_c4ether
                     aQOOHb           H                aadduct
                     trisub_epoxy     ibutenol         aQOOH[O]
                     ipropyl          aRO2             O2
                     formic_acid      propene          aQOOHg
                     ibut_peroxyacid  HO2              CH3""",
          reactions='all',
          initial_state=state(temperature=300.0, pressure=OneAtm))

#-------------------------------------------------------------------------------
# Element data
#-------------------------------------------------------------------------------

element(symbol='Ci', atomic_mass=13.003)
element(symbol='D', atomic_mass=2.014)
element(symbol='Oi', atomic_mass=18.0)
element(symbol='T', atomic_mass=3.016)
element(symbol='X', atomic_mass=195.083)
#-------------------------------------------------------------------------------
# Species data
#-------------------------------------------------------------------------------

species(name='aOOHbalkene',
        atoms='C:3 H:6 O:3',
        thermo=(NASA([10.00, 497.41],
                     [ 3.76691735E+00,  1.51417956E-02,  1.85499431E-04,
                      -4.61303214E-07,  3.27678941E-10, -2.99342832E+04,
                       1.09903968E+01]),
                NASA([497.41, 3000.00],
                     [ 6.20882781E+00,  4.08866173E-02, -2.89934946E-05,
                       9.60428979E-09, -1.19355432E-12, -3.07386125E+04,
                      -4.72842811E+00])))

species(name='OH',
        atoms='H:1 O:1',
        thermo=(NASA([10.00, 984.14],
                     [ 3.49686242E+00,  1.83973160E-04, -9.97634499E-07,
                       1.56942783E-09, -6.10128175E-13,  3.41673934E+03,
                       1.48093120E+00]),
                NASA([984.14, 3000.00],
                     [ 3.45221464E+00, -2.95124034E-04,  7.39418622E-07,
                      -2.89309866E-10,  3.53041498E-14,  3.45751599E+03,
                       1.85813897E+00])))

species(name='ibutanal',
        atoms='C:4 H:8 O:1',
        thermo=(NASA([10.00, 683.88],
                     [ 3.57157346E+00,  3.36936906E-02, -1.78475021E-05,
                       1.31946716E-08, -7.58008388E-12, -2.86484012E+04,
                       1.05595084E+01]),
                NASA([683.88, 3000.00],
                     [ 1.29043622E+00,  4.14804229E-02, -2.27411206E-05,
                       6.08619500E-09, -6.38995128E-13, -2.82064821E+04,
                       2.16477430E+01])))

species(name='aR',
        atoms='C:4 H:9 O:1',
        thermo=(NASA([10.00, 455.22],
                     [ 3.59625500E+00,  3.38947981E-02,  7.37257079E-06,
                      -3.99275335E-08,  2.49019944E-11, -1.52053526E+04,
                       1.18269265E+01]),
                NASA([455.22, 3000.00],
                     [ 2.49586309E+00,  4.35639890E-02, -2.44887770E-05,
                       6.73363769E-09, -7.23862433E-13, -1.51051694E+04,
                       1.62696907E+01])))

species(name='performic_acid',
        atoms='C:1 H:2 O:3',
        thermo=(NASA([10.00, 590.95],
                     [ 3.92633851E+00,  4.24517168E-03,  6.71106764E-05,
                      -1.36545385E-07,  8.03337864E-11, -3.63028176E+04,
                       8.06485813E+00]),
                NASA([590.95, 3000.00],
                     [ 4.39992934E+00,  1.85411415E-02, -1.36005501E-05,
                       4.62292431E-09, -5.88463603E-13, -3.66643888E+04,
                       3.44353230E+00])))

species(name='disub_c4ether',
        atoms='C:4 H:8 O:2',
        thermo=(NASA([10.00, 413.50],
                     [ 3.78241323E+00,  1.89501763E-02,  8.65302396E-05,
                      -1.80580575E-07,  1.13656264E-10, -3.69069710E+04,
                       1.09982450E+01]),
                NASA([413.50, 3000.00],
                     [ 4.29420885E-01,  5.13851903E-02, -3.11292293E-05,
                       9.11498284E-09, -1.03192718E-12, -3.66296766E+04,
                       2.42134976E+01])))

species(name='aQOOHb',
        atoms='C:4 H:9 O:3',
        thermo=(NASA([10.00, 412.78],
                     [ 3.15498836E+00,  8.55068303E-02, -2.35307993E-04,
                       4.71983261E-07, -3.62709267E-10, -2.92094168E+04,
                       1.52522123E+01]),
                NASA([412.78, 3000.00],
                     [ 4.18099845E+00,  5.26168288E-02, -3.23998410E-05,
                       9.59389339E-09, -1.09464519E-12, -2.90986218E+04,
                       1.35782328E+01])))

species(name='H',
        atoms='H:1',
        thermo=(NASA([10.00, 794.01],
                     [ 2.50000000E+00,  1.99051163E-15, -1.19089508E-17,
                       2.10805655E-20, -1.11017699E-23,  2.54725594E+04,
                      -4.61279342E-01]),
                NASA([794.01, 3000.00],
                     [ 2.50000000E+00,  1.52667235E-14, -1.58445285E-17,
                       6.63088600E-21, -9.62111674E-25,  2.54725594E+04,
                      -4.61279342E-01])))

species(name='aadduct',
        atoms='C:4 H:9 O:3',
        thermo=(NASA([10.00, 449.84],
                     [ 3.06901904E+00,  9.20724491E-02, -2.68085092E-04,
                       5.15249897E-07, -3.68046586E-10, -3.16942625E+04,
                       1.46591735E+01]),
                NASA([449.84, 3000.00],
                     [ 4.11210745E+00,  5.16955724E-02, -2.97401041E-05,
                       8.32758939E-09, -9.08861448E-13, -3.14734215E+04,
                       1.39578825E+01])))

species(name='trisub_epoxy',
        atoms='C:4 H:8 O:2',
        thermo=(NASA([10.00, 209.19],
                     [ 3.75295042E+00,  2.37546930E-02,  1.26610110E-04,
                      -4.78364365E-07,  5.79468168E-10, -4.08173802E+04,
                       1.12739684E+01]),
                NASA([209.19, 3000.00],
                     [ 2.64185254E+00,  4.50006531E-02, -2.57361066E-05,
                       7.15266054E-09, -7.72980731E-13, -4.07708946E+04,
                       1.48960343E+01])))

species(name='ibutenol',
        atoms='C:4 H:8 O:1',
        thermo=(NASA([10.00, 135.97],
                     [ 3.95714996E+00,  5.72646980E-03,  4.63611760E-04,
                      -3.04137514E-06,  6.85019471E-09, -2.28796963E+04,
                       8.21931848E+00]),
                NASA([135.97, 3000.00],
                     [ 3.32467612E+00,  3.69033556E-02, -1.89960416E-05,
                       4.73417677E-09, -4.59705291E-13, -2.28741176E+04,
                       9.58133237E+00])))

species(name='aQOOH[O]',
        atoms='C:4 H:9 O:3',
        thermo=(NASA([10.00, 488.36],
                     [ 3.54559533E+00,  3.89536133E-02,  8.47689703E-05,
                      -2.45147486E-07,  1.76157259E-10, -2.51801081E+04,
                       1.34685910E+01]),
                NASA([488.36, 3000.00],
                     [ 3.94214913E+00,  5.71928314E-02, -3.72516212E-05,
                       1.15209013E-08, -1.35808341E-12, -2.54750690E+04,
                       9.21628964E+00])))

species(name='ipropyl',
        atoms='C:3 H:7',
        thermo=(NASA([10.00, 421.76],
                     [ 3.73943775E+00,  3.10070157E-02, -1.51196908E-04,
                       4.35367329E-07, -3.85565052E-10,  9.49213457E+03,
                       7.79448918E+00]),
                NASA([421.76, 3000.00],
                     [-4.74526725E-01,  3.20862468E-02, -1.67340747E-05,
                       4.21365136E-09, -4.13155573E-13,  1.01934458E+04,
                       2.85865912E+01])))

species(name='aRO2',
        atoms='C:4 H:9 O:3',
        thermo=(NASA([10.00, 670.36],
                     [ 3.45405325E+00,  4.74751311E-02,  9.77507759E-06,
                      -6.31019603E-08,  3.75500067E-11, -3.33044512E+04,
                       1.39284976E+01]),
                NASA([670.36, 3000.00],
                     [ 5.04137652E+00,  5.19952978E-02, -3.16472789E-05,
                       9.22798587E-09, -1.03598915E-12, -3.38316438E+04,
                       4.56056770E+00])))

species(name='O2',
        atoms='O:2',
        thermo=(NASA([10.00, 605.96],
                     [ 3.50743498E+00, -4.43860349E-04,  1.45938058E-06,
                       1.61509333E-09, -2.32050052E-12, -9.24756224E+02,
                       4.72183634E+00]),
                NASA([605.96, 3000.00],
                     [ 2.87462882E+00,  2.17840991E-03, -1.18262921E-06,
                       2.86910493E-10, -2.53297146E-14, -8.19517838E+02,
                       7.69331810E+00])))

species(name='formic_acid',
        atoms='C:1 H:2 O:2',
        thermo=(NASA([10.00, 741.38],
                     [ 4.06855785E+00, -4.74562133E-03,  4.71797900E-05,
                      -6.07490052E-08,  2.51286794E-11, -4.66880837E+04,
                       6.53681035E+00]),
                NASA([741.38, 3000.00],
                     [ 1.13645847E+00,  1.74953124E-02, -1.08112403E-05,
                       3.08075326E-09, -3.34892658E-13, -4.64297918E+04,
                       1.86149484E+01])))

species(name='propene',
        atoms='C:3 H:6',
        thermo=(NASA([10.00, 519.53],
                     [ 3.98723879E+00,  4.72040503E-04,  6.51776229E-05,
                      -9.89891002E-08,  4.91141123E-11,  9.86652641E+02,
                       6.98071210E+00]),
                NASA([519.53, 3000.00],
                     [ 3.79893331E-01,  2.82457690E-02, -1.50108430E-05,
                       3.90894069E-09, -4.00521928E-13,  1.36147999E+03,
                       2.20218922E+01])))

species(name='aQOOHg',
        atoms='C:4 H:9 O:3',
        thermo=(NASA([10.00, 455.48],
                     [ 3.62522127E+00,  2.83222320E-02,  2.08527447E-04,
                      -5.67427418E-07,  4.35169138E-10, -2.63708822E+04,
                       1.26617758E+01]),
                NASA([455.48, 3000.00],
                     [ 5.13914202E+00,  5.96270859E-02, -4.14435328E-05,
                       1.34202375E-08, -1.63474553E-12, -2.69714385E+04,
                       1.46991116E+00])))

species(name='ibut_peroxyacid',
        atoms='C:4 H:8 O:3',
        thermo=(NASA([10.00, 1386.21],
                     [ 3.50995385E+00,  4.78670384E-02, -2.40781384E-05,
                       3.71046938E-09,  3.85442115E-13, -4.82023495E+04,
                       1.22017268E+01]),
                NASA([1386.21, 3000.00],
                     [ 1.24543146E+01,  3.02396862E-02, -1.38577031E-05,
                       3.05328904E-09, -2.63982457E-13, -5.14682328E+04,
                      -3.67061828E+01])))

species(name='HO2',
        atoms='H:1 O:2',
        thermo=(NASA([10.00, 891.11],
                     [ 4.02887004E+00, -1.75769289E-03,  1.08726004E-05,
                      -1.13812972E-08,  3.90113097E-12,  4.95165001E+02,
                       4.69302008E+00]),
                NASA([891.11, 3000.00],
                     [ 3.06571044E+00,  4.28505005E-03, -2.19325920E-06,
                       5.58882699E-10, -5.61246669E-14,  5.98557610E+02,
                       8.84564156E+00])))

species(name='CH3',
        atoms='C:1 H:3',
        thermo=(NASA([10.00, 616.77],
                     [ 3.98929952E+00,  5.45150461E-04,  9.01320092E-06,
                      -1.08320497E-08,  4.38985879E-12,  1.65859883E+04,
                       2.22446886E-01]),
                NASA([616.77, 3000.00],
                     [ 3.35928237E+00,  4.63117126E-03, -9.24365433E-07,
                      -9.02514624E-11,  3.56905106E-14,  1.66637014E+04,
                       2.95743732E+00])))

#-------------------------------------------------------------------------------
# Reaction data
#-------------------------------------------------------------------------------

# Reaction 1
chebyshev_reaction('aQOOH[O] (+ M) <=> aQOOHb (+ M)',
                   Tmin=180.0, Tmax=1500.0,
                   Pmin=(0.01, 'atm'), Pmax=(98.692, 'atm'),
                   coeffs=[[-7.05600e+00,  5.39800e+00, -7.31600e-01, -2.20700e-01,  6.18100e-02,  2.64200e-02, -1.30600e-02, -2.25200e-03],
                           [-2.75500e+00, -5.88200e-01,  9.70900e-01,  1.59400e-01, -9.50400e-02, -1.66800e-02,  1.96600e-02, -3.94300e-04],
                           [-3.70200e+00, -7.73900e-01, -1.25100e-01,  9.22100e-02,  2.59600e-02, -8.72000e-03, -3.13300e-03,  2.89400e-03],
                           [-1.50200e+00, -3.47000e-01, -1.96600e-01, -3.18200e-02,  1.67800e-02,  3.05800e-03, -1.56300e-03, -3.54000e-05],
                           [-5.32200e-01,  6.96200e-02, -6.11300e-02, -3.91200e-02, -6.87600e-03,  2.47800e-03,  5.32100e-04, -2.08500e-04],
                           [-2.09800e-01,  1.10000e-01,  2.97900e-02, -4.02400e-03, -7.89000e-03, -1.84500e-03, -6.71000e-07,  1.97700e-04],
                           [-1.05200e-01,  1.06000e-02,  2.73500e-02,  1.07600e-02,  2.79000e-03, -1.56400e-03, -8.36900e-04, -1.65600e-04],
                           [-6.52100e-02, -2.10200e-02, -7.36800e-03,  3.62600e-03,  3.61000e-03,  1.77900e-03, -2.49800e-04, -3.70500e-04],
                           [-3.89600e-02,  9.31500e-03, -1.02300e-02, -6.90400e-03, -8.44400e-04,  1.13300e-03,  7.20100e-04,  7.82300e-06],
                           [ 2.87100e-03, -2.67600e-03,  4.79200e-03, -1.83900e-03, -3.15900e-03, -9.21800e-04,  2.92000e-04,  3.08200e-04]])

# Reaction 2
chebyshev_reaction('aQOOHg (+ M) <=> aQOOHb (+ M)',
                   Tmin=180.0, Tmax=1500.0,
                   Pmin=(0.01, 'atm'), Pmax=(98.692, 'atm'),
                   coeffs=[[-9.72000e+00,  4.55000e+00, -4.99200e-01, -2.31100e-01,  3.39900e-02,  1.70100e-02, -7.10300e-03,  1.04600e-03],
                           [ 1.20600e-01,  2.42700e-02,  9.69400e-01,  1.62800e-01, -1.25500e-01, -1.56800e-02,  2.04900e-02, -1.47000e-03],
                           [-3.16900e+00, -7.59700e-01, -1.62700e-01,  1.79300e-01,  5.49100e-02, -1.97200e-02, -1.08100e-02,  3.16300e-03],
                           [-1.70200e+00, -5.42800e-01, -2.44700e-01,  9.71300e-03,  4.21500e-02,  2.84300e-03, -4.96400e-03, -2.37800e-04],
                           [-7.38300e-01, -7.66500e-02, -1.05800e-01, -5.43500e-02,  1.43400e-04,  9.13800e-03,  1.61200e-03, -1.07700e-03],
                           [-2.68300e-01,  3.04600e-02, -1.07800e-02, -2.53200e-02, -8.71900e-03,  2.04600e-03,  9.56100e-04, -4.00200e-04],
                           [-8.50500e-02,  9.91700e-03,  3.44700e-03,  6.22800e-04, -5.77300e-04, -1.49800e-03, -6.25600e-04, -6.41600e-05],
                           [-2.08200e-02,  1.67500e-02, -5.68200e-03,  2.44300e-05,  7.34200e-04,  2.49700e-04,  1.11300e-04, -6.46000e-05],
                           [-1.68900e-02,  5.24800e-02,  3.64900e-03, -8.06500e-03, -2.04800e-03,  8.56900e-04,  5.90300e-04,  2.98000e-05],
                           [ 8.01800e-03,  2.21300e-02,  1.75900e-02,  5.60100e-04, -2.89900e-03, -1.02600e-03,  1.19400e-04,  2.23100e-04]])

# Reaction 3
chebyshev_reaction('aRO2 (+ M) <=> aQOOHb (+ M)',
                   Tmin=180.0, Tmax=1500.0,
                   Pmin=(0.01, 'atm'), Pmax=(98.692, 'atm'),
                   coeffs=[[-8.90400e+00,  2.56000e+00,  2.05600e-01, -1.02700e-01,  3.16000e-03,  3.74600e-03, -6.12200e-03,  1.08400e-03],
                           [-9.05600e-01,  2.02700e+00,  4.00900e-01,  2.81200e-02, -3.12100e-02, -1.41000e-02,  5.13700e-03,  4.38600e-04],
                           [-3.66100e+00, -1.46200e-01, -7.73200e-02,  5.31100e-02,  2.07000e-02, -6.27600e-03,  8.15300e-04,  1.22400e-03],
                           [-1.60300e+00, -3.59600e-01, -2.33400e-01, -4.06700e-02,  1.14700e-02,  1.05400e-02,  2.61900e-03, -9.39700e-04],
                           [-5.34100e-01, -1.71400e-02, -8.59300e-02, -5.57600e-02, -1.36400e-02,  6.00200e-03,  3.52200e-03, -6.63100e-04],
                           [-1.88700e-01,  1.11700e-01,  2.71100e-02, -1.06400e-02, -9.24300e-03, -2.74600e-03, -1.51000e-04,  3.38800e-04],
                           [-9.46100e-02,  4.23200e-02,  2.66200e-02,  1.63400e-02,  3.67200e-03, -2.29200e-03, -1.95800e-03, -8.91000e-05],
                           [-6.50500e-02, -4.24300e-03, -4.05100e-03,  7.27700e-03,  5.91200e-03,  1.11100e-03, -2.80000e-04, -5.61300e-04],
                           [-3.87900e-02,  4.19900e-03, -1.03600e-02, -3.73500e-03, -3.65500e-04,  1.25300e-03,  9.87900e-04, -1.44800e-04],
                           [-6.88000e-03,  6.87100e-03, -2.14900e-03, -1.58100e-03, -2.38100e-03, -8.22600e-04,  1.77500e-04,  3.69000e-04]])

# Reaction 4
chebyshev_reaction('aadduct (+ M) <=> aQOOHb (+ M)',
                   Tmin=180.0, Tmax=1500.0,
                   Pmin=(0.01, 'atm'), Pmax=(98.692, 'atm'),
                   coeffs=[[-9.82600e+00,  1.66800e+00, -2.78100e-03, -2.42500e-02,  1.84300e-03, -4.72700e-03, -1.36600e-03,  7.99700e-04],
                           [-4.74800e+00,  2.27000e+00,  4.47300e-01, -1.16000e-02, -1.97700e-02, -3.68400e-03,  4.10600e-04,  2.01400e-04],
                           [-4.60800e+00, -7.99000e-02, -1.07800e-01,  3.88100e-02,  2.02800e-02,  3.30600e-04,  3.72200e-04, -3.53000e-04],
                           [-1.80000e+00, -1.84400e-01, -3.00800e-01, -3.90500e-02,  1.83700e-02,  9.48800e-03,  2.37900e-03, -7.00300e-04],
                           [-4.99500e-01,  1.38200e-01, -1.39600e-01, -4.94600e-02, -7.36100e-03,  4.05100e-03,  2.60400e-03, -2.66000e-05],
                           [-1.46700e-01,  1.50400e-01,  4.38600e-03,  2.52100e-03, -1.05500e-02, -4.16400e-03, -7.11300e-06,  2.80100e-04],
                           [-8.72000e-02,  1.61200e-02,  1.68900e-02,  3.05300e-02, -3.00400e-04, -3.57200e-03, -1.65300e-03, -1.94800e-04],
                           [-6.18300e-02, -2.81700e-02, -8.12900e-03,  1.70800e-02,  3.07700e-03, -3.56400e-05, -5.28900e-04, -3.17100e-04],
                           [-1.01900e-02, -1.84400e-02, -4.17800e-03,  2.99100e-03, -3.38200e-03,  8.59400e-04,  7.45400e-04,  3.96400e-06],
                           [ 2.89600e-02, -2.20600e-02,  9.74400e-03,  4.01800e-03, -6.02500e-03, -5.95900e-04,  3.93700e-04,  2.53500e-04]])

# Reaction 5
chebyshev_reaction('O2 + aR (+ M) <=> aQOOHb (+ M)',
                   Tmin=180.0, Tmax=1500.0,
                   Pmin=(0.01, 'atm'), Pmax=(98.692, 'atm'),
                   coeffs=[[-3.28800e+00,  7.65200e+00, -2.20900e-01, -5.74700e-01, -6.60900e-02,  7.68900e-02,  2.60500e-02, -1.67100e-02],
                           [-2.15000e+00, -3.76900e+00,  1.24500e+00,  6.07900e-01, -7.25400e-02, -1.19700e-01, -1.16200e-02,  2.74000e-02],
                           [-1.91900e+00, -7.79900e-01, -2.29800e-01,  1.68800e-01,  9.13400e-02, -6.03700e-04, -2.47300e-02, -4.10500e-03],
                           [-7.65900e-01, -2.70100e-01, -2.57100e-01, -1.47700e-02,  4.61300e-02,  1.19700e-02, -3.86700e-04, -4.92700e-03],
                           [-2.38000e-01,  5.18600e-02, -9.28000e-02, -4.53900e-02,  1.86500e-05,  7.16200e-03,  4.02900e-03, -8.36400e-04],
                           [-8.13900e-02,  7.33800e-02,  1.88500e-02, -1.52800e-02, -9.46800e-03,  1.34200e-03,  7.76800e-04,  1.37100e-04],
                           [-4.08100e-02, -2.20200e-02,  3.28100e-02,  1.71300e-03,  1.25600e-04,  1.03600e-03, -1.92800e-03,  2.84900e-04],
                           [-5.33600e-02, -7.16100e-03, -1.36500e-02,  1.59000e-03,  4.43800e-03,  6.10700e-04,  1.66300e-04, -3.83500e-04],
                           [-3.50500e-02,  1.59600e-02, -1.58300e-02, -3.45500e-03, -2.11200e-03,  6.40400e-04,  1.34200e-03, -9.61400e-05],
                           [ 2.10200e-03,  6.84000e-03,  3.08000e-03, -2.73400e-03, -2.11900e-03, -1.61300e-03,  6.73200e-04,  1.85500e-04]])
#  aQOOHb(+M) <=> aQOOH[O](+M)                         1.000e+00 0.000     0.000
#      TCHEB/ 180.000   1500.000 /
#      PCHEB/ 0.010     98.692   /
#      CHEB/ 10 8/
#      CHEB/ -1.399e+01   5.398e+00    -7.316e-01   -2.207e-01   6.181e-02   /
#      CHEB/ 2.642e-02    -1.306e-02   -2.252e-03   1.344e+00    -5.882e-01  /
#      CHEB/ 9.709e-01    1.594e-01    -9.504e-02   -1.668e-02   1.966e-02   /
#      CHEB/ -3.943e-04   -3.624e+00   -7.739e-01   -1.251e-01   9.221e-02   /
#      CHEB/ 2.596e-02    -8.720e-03   -3.133e-03   2.894e-03    -1.456e+00  /
#      CHEB/ -3.470e-01   -1.966e-01   -3.182e-02   1.678e-02    3.058e-03   /
#      CHEB/ -1.563e-03   -3.540e-05   -5.168e-01   6.962e-02    -6.113e-02  /
#      CHEB/ -3.912e-02   -6.876e-03   2.478e-03    5.321e-04    -2.085e-04  /
#      CHEB/ -2.051e-01   1.100e-01    2.979e-02    -4.024e-03   -7.890e-03  /
#      CHEB/ -1.845e-03   -6.710e-07   1.977e-04    -1.034e-01   1.060e-02   /
#      CHEB/ 2.735e-02    1.076e-02    2.790e-03    -1.564e-03   -8.369e-04  /
#      CHEB/ -1.656e-04   -6.449e-02   -2.102e-02   -7.368e-03   3.626e-03   /
#      CHEB/ 3.610e-03    1.779e-03    -2.498e-04   -3.705e-04   -3.876e-02  /
#      CHEB/ 9.315e-03    -1.023e-02   -6.904e-03   -8.444e-04   1.133e-03   /
#      CHEB/ 7.201e-04    7.823e-06    2.878e-03    -2.676e-03   4.792e-03   /
#      CHEB/ -1.839e-03   -3.159e-03   -9.218e-04   2.920e-04    3.082e-04   /

# Reaction 6
chebyshev_reaction('aQOOHg (+ M) <=> aQOOH[O] (+ M)',
                   Tmin=180.0, Tmax=1500.0,
                   Pmin=(0.01, 'atm'), Pmax=(98.692, 'atm'),
                   coeffs=[[-1.15200e+00,  8.08900e-01, -4.40700e-02,  2.97600e-02, -4.05800e-03,  1.13400e-03, -2.43200e-04, -3.31700e-05],
                           [-1.08800e+00,  5.17200e-01,  1.06400e-01,  1.43500e-02,  2.68800e-04,  9.54600e-05,  3.73200e-05, -7.07900e-05],
                           [-2.87900e+00, -1.13400e-01,  3.54500e-03,  7.60500e-03,  2.42800e-03,  3.06700e-04,  2.63100e-05, -4.23900e-05],
                           [-1.41100e+00, -1.76000e-01, -5.74800e-02, -9.36500e-03, -5.56600e-05,  5.94700e-04,  1.89500e-04, -6.78900e-06],
                           [-6.30800e-01, -7.57400e-02, -3.99000e-02, -1.05700e-02, -2.34600e-03, -9.79700e-05,  1.09600e-04,  2.48400e-05],
                           [-2.44200e-01, -4.92900e-03, -1.00200e-02, -5.77700e-03, -1.45300e-03, -3.37500e-04, -2.70600e-05,  4.53600e-06],
                           [-8.94300e-02,  3.19300e-02,  2.92900e-03, -2.18100e-03, -8.76900e-04, -1.87700e-04, -2.63800e-05,  5.31000e-06],
                           [-1.38000e-02,  3.39800e-02,  1.09400e-02, -3.42700e-04, -6.92800e-04, -2.73200e-04, -2.03800e-05,  1.21200e-05],
                           [-1.82300e-02,  3.53100e-02,  7.46500e-03,  3.37900e-03, -5.20400e-04, -2.05500e-04, -6.62000e-05, -5.07300e-06],
                           [-3.55600e-03,  6.92400e-03,  8.46500e-03,  3.15700e-03,  7.41800e-04, -6.94100e-05, -6.13600e-05, -2.05700e-05]])

# Reaction 7
chebyshev_reaction('aRO2 (+ M) <=> aQOOH[O] (+ M)',
                   Tmin=180.0, Tmax=1500.0,
                   Pmin=(0.01, 'atm'), Pmax=(98.692, 'atm'),
                   coeffs=[[-1.32700e+01,  8.03800e+00,  3.52500e-02, -9.25500e-01, -7.17000e-02,  2.68100e-01, -2.81700e-02, -7.66900e-02],
                           [ 8.29600e+00, -2.88600e+00,  6.32400e-01,  7.58300e-01, -2.08100e-01, -2.06800e-01,  1.35200e-01,  2.12600e-02],
                           [-3.44700e+00,  2.86500e-01, -5.79200e-01,  7.85100e-03,  2.59000e-01, -7.15700e-02, -1.03900e-01,  8.31500e-02],
                           [-1.26500e+00, -3.58800e-01, -8.75000e-02, -4.83200e-02,  2.91500e-03,  4.44300e-02, -1.69300e-02, -3.03900e-02],
                           [-5.00700e-01, -1.16900e-01, -3.40200e-02,  1.10900e-03, -1.25300e-02, -9.00200e-03,  1.62000e-02, -2.07300e-03],
                           [-2.72900e-01,  1.23500e-01, -6.18300e-02,  1.64600e-02,  1.16900e-02, -1.69300e-02, -1.65800e-03,  1.27600e-02],
                           [-2.20500e-03, -1.13500e-01,  7.31900e-02,  9.22700e-03, -2.35900e-02,  7.95400e-03,  7.34500e-03, -8.57900e-03],
                           [-1.72800e-02, -1.58000e-02,  6.17000e-03,  1.02900e-02,  1.76100e-04, -5.01100e-03,  3.82300e-03,  1.81400e-03],
                           [-2.85200e-02,  8.38900e-03, -1.49500e-03,  3.23400e-03, -3.55700e-03,  3.15900e-03, -4.36100e-04, -1.46300e-03],
                           [ 2.66700e-02, -6.39900e-02,  2.63900e-02, -4.35900e-03, -6.26400e-03,  4.55400e-03,  1.25600e-03, -2.97100e-03]])

# Reaction 8
chebyshev_reaction('aadduct (+ M) <=> aQOOH[O] (+ M)',
                   Tmin=180.0, Tmax=1500.0,
                   Pmin=(0.01, 'atm'), Pmax=(98.692, 'atm'),
                   coeffs=[[-1.39400e+01,  6.83100e+00, -2.13400e-01, -7.25400e-01, -5.06700e-02,  1.94200e-01, -1.29200e-02, -5.22700e-02],
                           [ 4.69500e+00, -3.12000e+00,  6.32500e-01,  8.34800e-01, -1.63800e-01, -2.37200e-01,  1.03200e-01,  4.98700e-02],
                           [-4.24700e+00,  5.08200e-02, -4.94900e-01, -1.69100e-02,  2.56000e-01, -3.26800e-02, -1.14100e-01,  5.08800e-02],
                           [-1.49800e+00, -3.04800e-01, -6.42100e-02, -7.44800e-02, -1.68100e-02,  7.36900e-02, -2.85200e-03, -5.27700e-02],
                           [-5.63100e-01,  3.31000e-02, -3.44200e-03, -3.95000e-02, -2.16000e-02,  9.03500e-03,  2.31200e-02, -7.48900e-03],
                           [-3.50400e-01,  2.16000e-01, -2.77300e-02, -1.40200e-02,  5.21000e-03, -6.62200e-03,  2.28500e-04,  1.11700e-02],
                           [-1.09200e-01, -4.97100e-02,  6.86300e-02,  5.75900e-03, -2.61100e-02,  5.35100e-03,  7.87600e-03, -3.89900e-03],
                           [-9.17700e-02,  2.64300e-02,  2.21600e-03,  2.28600e-03,  7.99000e-03, -1.00700e-02, -7.92300e-04,  6.99000e-03],
                           [-5.57600e-02,  4.91000e-02, -1.51000e-02,  6.60300e-03,  2.75400e-04, -2.05100e-04, -3.27200e-03,  4.59000e-04],
                           [ 3.41000e-02, -5.54300e-02,  2.15400e-02, -6.79400e-04, -2.65400e-03,  1.07500e-03,  5.32000e-04, -1.99600e-03]])

# Reaction 9
chebyshev_reaction('O2 + aR (+ M) <=> aQOOH[O] (+ M)',
                   Tmin=180.0, Tmax=1500.0,
                   Pmin=(0.01, 'atm'), Pmax=(98.692, 'atm'),
                   coeffs=[[-1.81700e+00,  4.00600e+00,  1.04100e+00,  4.19900e-01, -2.83300e-01, -2.30100e-01, -4.93600e-03,  1.01500e-01],
                           [-3.49700e+00, -4.40700e-01, -7.32500e-01, -1.50700e-01,  3.90500e-01,  2.12300e-01, -4.56200e-02, -1.29900e-01],
                           [-1.36100e+00, -5.55600e-01,  1.18100e-02, -1.95200e-01, -1.14600e-02,  5.76200e-02,  4.35400e-02,  3.71700e-03],
                           [-4.55300e-01, -4.19900e-01,  8.21400e-02, -4.18100e-02, -7.00300e-02, -1.01000e-02,  2.54700e-02,  2.36500e-02],
                           [-1.25300e-01, -1.96200e-01, -2.61300e-02,  5.45000e-02, -2.10900e-02, -2.13300e-02, -7.65700e-03,  8.39200e-03],
                           [-5.70700e-02, -2.20500e-02, -8.37600e-02,  4.97100e-02,  1.19600e-02, -8.00400e-03, -1.22600e-02, -4.13200e-03],
                           [-6.67100e-02,  6.63800e-02, -6.96000e-02,  1.19600e-02,  1.83300e-02,  1.20400e-03, -4.65700e-03, -5.84900e-03],
                           [-5.86900e-02,  6.69100e-02, -1.70000e-02, -2.21200e-02,  9.57100e-03,  3.47500e-03,  2.96700e-03, -1.63100e-03],
                           [-4.84400e-02,  3.48000e-02,  2.32000e-02, -2.43400e-02,  8.64200e-04,  1.05300e-03,  2.44400e-03,  1.62600e-03],
                           [-9.03800e-03, -1.04700e-02,  3.66500e-02, -1.68100e-02, -7.15000e-03,  1.33100e-03,  2.16000e-03,  2.16200e-03]])
#  aQOOHb(+M) <=> aQOOHg(+M)                           1.000e+00 0.000     0.000
#      TCHEB/ 180.000   1500.000 /
#      PCHEB/ 0.010     98.692   /
#      CHEB/ 10 8/
#      CHEB/ -1.524e+01   4.550e+00    -4.992e-01   -2.311e-01   3.399e-02   /
#      CHEB/ 1.701e-02    -7.103e-03   1.046e-03    3.260e+00    2.427e-02   /
#      CHEB/ 9.694e-01    1.628e-01    -1.255e-01   -1.568e-02   2.049e-02   /
#      CHEB/ -1.470e-03   -2.946e+00   -7.597e-01   -1.627e-01   1.793e-01   /
#      CHEB/ 5.491e-02    -1.972e-02   -1.081e-02   3.163e-03    -1.608e+00  /
#      CHEB/ -5.428e-01   -2.447e-01   9.713e-03    4.215e-02    2.843e-03   /
#      CHEB/ -4.964e-03   -2.378e-04   -7.101e-01   -7.665e-02   -1.058e-01  /
#      CHEB/ -5.435e-02   1.434e-04    9.138e-03    1.612e-03    -1.077e-03  /
#      CHEB/ -2.605e-01   3.046e-02    -1.078e-02   -2.532e-02   -8.719e-03  /
#      CHEB/ 2.046e-03    9.561e-04    -4.002e-04   -8.254e-02   9.917e-03   /
#      CHEB/ 3.447e-03    6.228e-04    -5.773e-04   -1.498e-03   -6.256e-04  /
#      CHEB/ -6.416e-05   -2.009e-02   1.675e-02    -5.682e-03   2.443e-05   /
#      CHEB/ 7.342e-04    2.497e-04    1.113e-04    -6.460e-05   -1.687e-02  /
#      CHEB/ 5.248e-02    3.649e-03    -8.065e-03   -2.048e-03   8.569e-04   /
#      CHEB/ 5.903e-04    2.980e-05    7.876e-03    2.213e-02    1.759e-02   /
#      CHEB/ 5.601e-04    -2.899e-03   -1.026e-03   1.194e-04    2.231e-04   /
#  aQOOH[O](+M) <=> aQOOHg(+M)                         1.000e+00 0.000     0.000
#      TCHEB/ 180.000   1500.000 /
#      PCHEB/ 0.010     98.692   /
#      CHEB/ 10 8/
#      CHEB/ 2.613e-01    8.089e-01    -4.407e-02   2.976e-02    -4.058e-03  /
#      CHEB/ 1.134e-03    -2.432e-04   -3.317e-05   -2.048e+00   5.172e-01   /
#      CHEB/ 1.064e-01    1.435e-02    2.688e-04    9.546e-05    3.732e-05   /
#      CHEB/ -7.079e-05   -2.734e+00   -1.134e-01   3.545e-03    7.605e-03   /
#      CHEB/ 2.428e-03    3.067e-04    2.631e-05    -4.239e-05   -1.362e+00  /
#      CHEB/ -1.760e-01   -5.748e-02   -9.365e-03   -5.566e-05   5.947e-04   /
#      CHEB/ 1.895e-04    -6.789e-06   -6.180e-01   -7.574e-02   -3.990e-02  /
#      CHEB/ -1.057e-02   -2.346e-03   -9.797e-05   1.096e-04    2.484e-05   /