units(length='cm', time='s', quantity='mol', act_energy='kcal/mol')

ideal_gas(name='gas',
          elements="H D T C Ci O Oi N Ne Ar He Si S F Cl Br I X",
          species="""OH             bQOOH[O]       acetone
                     H2O            balkoxyketone  ibutenol
                     trisub_epoxy   bQOOHg         CH2O
                     galkene        O2             bR
                     bQOOHa         bRO2           disub_epoxy
                     HO2""",
          reactions='all',
          initial_state=state(temperature=300.0, pressure=OneAtm))

#-------------------------------------------------------------------------------
# Element data
#-------------------------------------------------------------------------------

element(symbol='Ci', atomic_mass=13.003)
element(symbol='D', atomic_mass=2.014)
element(symbol='Oi', atomic_mass=18.0)
element(symbol='T', atomic_mass=3.016)
element(symbol='X', atomic_mass=195.083)
#-------------------------------------------------------------------------------
# Species data
#-------------------------------------------------------------------------------

species(name='OH',
        atoms='H:1 O:1',
        thermo=(NASA([10.00, 984.14],
                     [ 3.49686242E+00,  1.83973160E-04, -9.97634499E-07,
                       1.56942783E-09, -6.10128175E-13,  3.41673934E+03,
                       1.48093120E+00]),
                NASA([984.14, 3000.00],
                     [ 3.45221464E+00, -2.95124034E-04,  7.39418622E-07,
                      -2.89309866E-10,  3.53041498E-14,  3.45751599E+03,
                       1.85813897E+00])))

species(name='bQOOH[O]',
        atoms='C:4 H:9 O:3',
        thermo=(NASA([10.00, 338.69],
                     [ 3.60915854E+00,  3.39069566E-02,  2.22227265E-04,
                      -8.23527342E-07,  8.56246333E-10, -2.18628562E+04,
                       1.23284605E+01]),
                NASA([338.69, 3000.00],
                     [ 5.03198881E+00,  5.46235886E-02, -3.56935806E-05,
                       1.12371751E-08, -1.35390171E-12, -2.21744389E+04,
                       3.82760723E+00])))

species(name='acetone',
        atoms='C:3 H:6 O:1',
        thermo=(NASA([10.00, 414.35],
                     [ 3.73496166E+00,  3.05743218E-02, -1.26253585E-04,
                       3.66080978E-07, -3.31430437E-10, -2.70647437E+04,
                       8.24936012E+00]),
                NASA([414.35, 3000.00],
                     [ 1.70010292E-01,  3.28431468E-02, -1.80960132E-05,
                       4.82960690E-09, -5.02388538E-13, -2.64933606E+04,
                       2.56372653E+01])))

species(name='H2O',
        atoms='H:2 O:1',
        thermo=(NASA([10.00, 773.84],
                     [ 4.00473541E+00, -2.39729134E-04,  8.11862955E-07,
                       1.47891862E-09, -1.19783539E-12, -3.03533807E+04,
                      -9.96254147E-02]),
                NASA([773.84, 3000.00],
                     [ 3.52133374E+00,  1.05377009E-03,  6.40722099E-07,
                      -3.86240235E-10,  5.49243294E-14, -3.02424794E+04,
                       2.34173094E+00])))

species(name='balkoxyketone',
        atoms='C:4 H:7 O:2',
        thermo=(NASA([10.00, 269.93],
                     [ 3.81931151E+00,  1.68519318E-02,  2.42742224E-04,
                      -9.64821161E-07,  1.18509335E-09, -2.08437546E+04,
                       1.20521854E+01]),
                NASA([269.93, 3000.00],
                     [ 3.57555944E+00,  4.28868089E-02, -2.65390705E-05,
                       7.99659117E-09, -9.32983470E-13, -2.09122827E+04,
                       1.13957990E+01])))

species(name='ibutenol',
        atoms='C:4 H:8 O:1',
        thermo=(NASA([10.00, 135.97],
                     [ 3.95714996E+00,  5.72646980E-03,  4.63611760E-04,
                      -3.04137514E-06,  6.85019471E-09, -2.52452524E+04,
                       8.21931848E+00]),
                NASA([135.97, 3000.00],
                     [ 3.32467612E+00,  3.69033556E-02, -1.89960416E-05,
                       4.73417677E-09, -4.59705291E-13, -2.52396738E+04,
                       9.58133237E+00])))

species(name='trisub_epoxy',
        atoms='C:4 H:8 O:2',
        thermo=(NASA([10.00, 209.19],
                     [ 3.75295042E+00,  2.37546930E-02,  1.26610110E-04,
                      -4.78364365E-07,  5.79468168E-10, -4.11709709E+04,
                       1.12739684E+01]),
                NASA([209.19, 3000.00],
                     [ 2.64185254E+00,  4.50006531E-02, -2.57361066E-05,
                       7.15266054E-09, -7.72980731E-13, -4.11244853E+04,
                       1.48960343E+01])))

species(name='bQOOHg',
        atoms='C:4 H:9 O:3',
        thermo=(NASA([10.00, 441.09],
                     [ 3.56595280E+00,  3.36073467E-02,  2.03462772E-04,
                      -5.98977617E-07,  4.83271168E-10, -2.27347723E+04,
                       1.33537891E+01]),
                NASA([441.09, 3000.00],
                     [ 6.09031192E+00,  5.80517622E-02, -4.06392697E-05,
                       1.32574026E-08, -1.62501077E-12, -2.34179578E+04,
                      -1.97849715E+00])))

species(name='CH2O',
        atoms='C:1 H:2 O:1',
        thermo=(NASA([10.00, 601.31],
                     [ 4.03190845E+00, -1.93233367E-03,  8.89743345E-06,
                       2.98105926E-09, -7.90813886E-12, -1.42276270E+04,
                       3.47574660E+00]),
                NASA([601.31, 3000.00],
                     [ 1.40134195E+00,  9.48858016E-03, -4.43088317E-06,
                       9.48452194E-10, -7.43790219E-14, -1.38013869E+04,
                       1.57423780E+01])))

species(name='galkene',
        atoms='C:4 H:8 O:1',
        thermo=(NASA([10.00, 383.47],
                     [ 3.84035604E+00,  1.20378740E-02,  1.87486319E-04,
                      -5.44759148E-07,  4.80711015E-10, -2.18896514E+04,
                       1.02570291E+01]),
                NASA([383.47, 3000.00],
                     [ 4.00413385E+00,  3.79025144E-02, -2.15435710E-05,
                       6.15213311E-09, -6.97446345E-13, -2.21049407E+04,
                       6.98052628E+00])))

species(name='O2',
        atoms='O:2',
        thermo=(NASA([10.00, 605.96],
                     [ 3.50743498E+00, -4.43860349E-04,  1.45938058E-06,
                       1.61509333E-09, -2.32050052E-12, -9.24756224E+02,
                       4.72183634E+00]),
                NASA([605.96, 3000.00],
                     [ 2.87462882E+00,  2.17840991E-03, -1.18262921E-06,
                       2.86910493E-10, -2.53297146E-14, -8.19517838E+02,
                       7.69331810E+00])))

species(name='bR',
        atoms='C:4 H:9 O:1',
        thermo=(NASA([10.00, 483.43],
                     [ 3.38164846E+00,  5.97142637E-02, -1.58320095E-04,
                       3.04908893E-07, -2.13091806E-10, -1.16027168E+04,
                       1.09226843E+01]),
                NASA([483.43, 3000.00],
                     [ 2.33428824E+00,  4.22094427E-02, -2.28029290E-05,
                       6.04614564E-09, -6.30240159E-13, -1.11956348E+04,
                       1.83772893E+01])))

species(name='bQOOHa',
        atoms='C:4 H:9 O:3',
        thermo=(NASA([10.00, 390.53],
                     [ 3.54969236E+00,  3.76592474E-02,  1.76622653E-04,
                      -5.98063750E-07,  5.45069236E-10, -2.69610304E+04,
                       1.31518761E+01]),
                NASA([390.53, 3000.00],
                     [ 5.33564209E+00,  5.64935715E-02, -3.83214298E-05,
                       1.22990604E-08, -1.49549987E-12, -2.73836403E+04,
                       2.59015836E+00])))

species(name='bRO2',
        atoms='C:4 H:9 O:3',
        thermo=(NASA([10.00, 461.39],
                     [ 3.53964713E+00,  3.88723795E-02,  9.57420148E-05,
                      -2.80380499E-07,  2.09647462E-10, -3.15936941E+04,
                       1.18803618E+01]),
                NASA([461.39, 3000.00],
                     [ 3.47201723E+00,  6.00510247E-02, -4.00567321E-05,
                       1.25663813E-08, -1.49496682E-12, -3.18066409E+04,
                       9.77903975E+00])))

species(name='disub_epoxy',
        atoms='C:4 H:8 O:2',
        thermo=(NASA([10.00, 549.41],
                     [ 3.89863211E+00,  5.97532637E-03,  1.66685676E-04,
                      -3.10743768E-07,  1.78330192E-10, -3.56961724E+04,
                       1.13847308E+01]),
                NASA([549.41, 3000.00],
                     [-6.40277648E-01,  6.05960003E-02, -4.13427220E-05,
                       1.31555461E-08, -1.57685017E-12, -3.55230555E+04,
                       2.76005436E+01])))

species(name='HO2',
        atoms='H:1 O:2',
        thermo=(NASA([10.00, 891.11],
                     [ 4.02887004E+00, -1.75769289E-03,  1.08726004E-05,
                      -1.13812972E-08,  3.90113097E-12,  4.95165001E+02,
                       4.69302008E+00]),
                NASA([891.11, 3000.00],
                     [ 3.06571044E+00,  4.28505005E-03, -2.19325920E-06,
                       5.58882699E-10, -5.61246669E-14,  5.98557610E+02,
                       8.84564156E+00])))

#-------------------------------------------------------------------------------
# Reaction data
#-------------------------------------------------------------------------------

# Reaction 1
chebyshev_reaction('bQOOHg (+ M) <=> bRO2 (+ M)',
                   Tmin=180.0, Tmax=1500.0,
                   Pmin=(0.01, 'atm'), Pmax=(98.692, 'atm'),
                   coeffs=[[ 1.97200e+00,  9.72000e-01, -1.44300e-01, -5.93700e-03,  4.99500e-04,  7.70300e-04,  1.20700e-04, -9.98600e-05],
                           [ 2.63900e+00,  1.51900e+00, -1.67900e-01, -2.03000e-02, -2.12300e-03,  1.63800e-03,  4.46400e-04, -1.44000e-04],
                           [ 1.34400e-01,  6.95700e-01,  2.91100e-02, -2.21000e-02, -8.21200e-03,  9.68000e-04,  7.81600e-04,  4.20200e-05],
                           [-4.16000e-01,  1.56800e-01,  9.32000e-02, -5.17800e-03, -8.06300e-03, -1.27400e-03,  6.22800e-04,  3.00200e-04],
                           [-3.15400e-01,  2.41200e-02,  4.44200e-02,  7.39500e-03, -8.43500e-04, -2.62700e-03, -1.90800e-04,  3.62600e-04],
                           [-1.53600e-01,  4.04100e-02, -2.81000e-03,  5.92600e-03,  3.95400e-03, -1.40100e-03, -7.39900e-04,  8.63900e-05],
                           [-6.52500e-02,  3.50300e-02, -1.06900e-02,  1.42900e-03,  2.56000e-03,  3.66700e-04, -4.31100e-04, -2.03100e-04],
                           [-2.79200e-02,  7.58100e-03, -2.53700e-03,  1.06200e-04, -1.62200e-04,  7.43800e-04,  9.41400e-05, -1.91100e-04],
                           [-1.05700e-02, -7.22900e-03,  2.28400e-03, -1.20200e-04, -7.19900e-04,  2.60500e-04,  1.93600e-04, -1.80100e-05],
                           [-1.26200e-03, -6.59100e-03,  2.11900e-03, -5.43200e-04, -9.69700e-05, -5.34500e-05,  3.69700e-05,  5.99100e-05]])

# Reaction 2
chebyshev_reaction('bQOOHa (+ M) <=> bRO2 (+ M)',
                   Tmin=180.0, Tmax=1500.0,
                   Pmin=(0.01, 'atm'), Pmax=(98.692, 'atm'),
                   coeffs=[[ 4.97100e+00,  9.20300e-01, -1.06100e-01, -1.23300e-02, -1.05000e-03,  4.86900e-04,  1.55900e-04, -3.59200e-05],
                           [ 1.39900e+00,  1.34500e+00, -1.01300e-01, -1.99100e-02, -6.32000e-03,  6.24100e-04,  4.26100e-04, -1.42900e-05],
                           [-6.48600e-02,  4.94300e-01,  4.25200e-02,  1.27800e-03, -1.04700e-02, -1.13300e-03,  4.44200e-04,  1.23900e-04],
                           [-2.73000e-01,  5.82800e-02,  5.53600e-02,  1.62700e-02, -3.95000e-03, -2.52700e-03, -2.54400e-04,  1.60400e-04],
                           [-2.04100e-01,  2.00600e-02,  9.56400e-03,  9.32500e-03,  4.27100e-03, -1.12100e-03, -8.22200e-04, -8.27700e-05],
                           [-1.30700e-01,  5.83900e-02, -1.04000e-02, -1.60600e-03,  4.52100e-03,  8.73500e-04, -3.82200e-04, -2.70200e-04],
                           [-7.85700e-02,  4.68000e-02, -5.31700e-03, -3.58600e-03,  7.43800e-04,  1.07100e-03,  2.71100e-04, -1.35800e-04],
                           [-4.09900e-02,  1.53900e-02,  2.03900e-03, -1.25000e-03, -1.15900e-03,  3.06400e-04,  3.46000e-04,  6.18900e-05],
                           [-1.72800e-02, -2.17500e-03,  4.02300e-03,  6.77200e-05, -8.92600e-04, -1.43000e-04,  1.12200e-04,  9.28000e-05],
                           [-5.71300e-03, -4.89000e-03,  2.43700e-03,  2.73600e-04, -2.05300e-04, -2.08000e-04, -2.13800e-05,  3.67500e-05]])

# Reaction 3
chebyshev_reaction('bQOOH[O] (+ M) <=> bRO2 (+ M)',
                   Tmin=180.0, Tmax=1500.0,
                   Pmin=(0.01, 'atm'), Pmax=(98.692, 'atm'),
                   coeffs=[[ 9.59900e+00,  1.79300e+00, -2.33900e-01, -6.30700e-02, -8.28600e-03,  6.75900e-03,  3.31500e-03,  5.03000e-05],
                           [-7.59400e-01,  4.09700e-01,  2.75800e-03,  1.69900e-02, -8.49900e-03, -3.79900e-03, -4.69500e-04,  5.06300e-04],
                           [-5.58000e-01,  3.09600e-01,  1.13700e-02,  9.95200e-03, -4.18100e-03, -3.03000e-03, -5.92800e-04,  2.67500e-04],
                           [-2.80300e-01,  1.51800e-01, -2.30100e-03,  2.69800e-03,  3.11000e-03,  7.17500e-05, -6.27200e-04, -4.26300e-04],
                           [-2.50900e-01,  1.30000e-01,  2.30900e-02, -3.66300e-04, -1.33500e-03, -1.28600e-03, -1.28800e-04,  1.91100e-04],
                           [-1.05400e-01,  3.51200e-02,  3.59000e-03,  5.04800e-04,  2.15700e-03,  5.33800e-04, -2.89700e-04, -2.59700e-04],
                           [-9.40200e-02,  3.59300e-02,  1.00400e-02,  8.96200e-04, -8.68100e-04, -3.41100e-04,  5.82500e-05,  7.36200e-05],
                           [-3.21400e-02,  3.66100e-03, -2.53500e-04,  9.67100e-04,  4.48600e-04,  2.49100e-04,  5.57200e-05, -7.47800e-05],
                           [-1.53900e-02, -1.57000e-03, -4.70400e-04,  8.28400e-04,  3.06500e-04,  2.21100e-05,  6.47400e-06, -1.91600e-05],
                           [-1.63100e-02,  4.91000e-03,  2.33200e-03, -2.54000e-04, -5.42800e-04, -1.46100e-04,  1.10900e-04,  7.91300e-05]])

# Reaction 4
chebyshev_reaction('O2 + bR (+ M) <=> bRO2 (+ M)',
                   Tmin=180.0, Tmax=1500.0,
                   Pmin=(0.01, 'atm'), Pmax=(98.692, 'atm'),
                   coeffs=[[ 1.38000e+01,  6.65200e-01, -1.39300e-01,  2.76900e-02, -5.95900e-03, -1.09400e-04,  6.48900e-04, -2.49100e-04],
                           [-1.11500e+00,  7.61300e-01, -2.98300e-02, -2.63700e-02,  7.43400e-03, -1.60200e-03, -3.10000e-05,  2.21600e-04],
                           [-5.49000e-01,  2.83500e-01,  6.21700e-02, -2.02000e-02, -1.32200e-03,  1.72600e-03, -6.79100e-04,  9.33300e-05],
                           [-3.02600e-01,  9.16300e-02,  3.97700e-02, -1.04800e-04, -2.89500e-03,  4.74800e-04, -3.99100e-05, -6.92600e-05],
                           [-1.79500e-01,  4.97800e-02,  7.88300e-03,  4.38000e-03,  1.38900e-04, -6.31900e-04,  1.16800e-04, -4.88800e-06],
                           [-1.05700e-01,  2.82100e-02,  1.15500e-03,  1.25800e-03,  1.01500e-03, -3.17500e-04, -8.74200e-06,  3.65700e-05],
                           [-5.46500e-02,  7.16100e-03,  2.58600e-03,  2.86200e-04,  1.29600e-04,  6.94100e-05, -1.40900e-05,  3.55500e-06],
                           [-2.18400e-02, -5.81300e-03,  2.77200e-03,  5.08300e-04, -2.79900e-04,  1.03000e-04,  7.47200e-06, -1.48300e-05],
                           [-5.29800e-03, -7.57200e-03,  7.63700e-04,  6.01500e-04, -1.42300e-04,  2.59700e-05,  1.11200e-05, -1.24300e-05],
                           [ 2.14500e-03, -5.74600e-03, -3.32500e-04,  2.09600e-04,  3.72300e-05,  4.25200e-06, -2.51100e-06, -3.06500e-07]])
#  bRO2(+M) <=> bQOOHg(+M)                             1.000e+00 0.000     0.000
#      TCHEB/ 180.000   1500.000 /
#      PCHEB/ 0.010     98.692   /
#      CHEB/ 10 8/
#      CHEB/ -9.045e+00   9.720e-01    -1.443e-01   -5.937e-03   4.995e-04   /
#      CHEB/ 7.703e-04    1.207e-04    -9.986e-05   1.244e+01    1.519e+00   /
#      CHEB/ -1.679e-01   -2.030e-02   -2.123e-03   1.638e-03    4.464e-04   /
#      CHEB/ -1.440e-04   2.802e-01    6.957e-01    2.911e-02    -2.210e-02  /
#      CHEB/ -8.212e-03   9.680e-04    7.816e-04    4.202e-05    -3.789e-01  /
#      CHEB/ 1.568e-01    9.320e-02    -5.178e-03   -8.063e-03   -1.274e-03  /
#      CHEB/ 6.228e-04    3.002e-04    -3.096e-01   2.412e-02    4.442e-02   /
#      CHEB/ 7.395e-03    -8.435e-04   -2.627e-03   -1.908e-04   3.626e-04   /
#      CHEB/ -1.537e-01   4.041e-02    -2.810e-03   5.926e-03    3.954e-03   /
#      CHEB/ -1.401e-03   -7.399e-04   8.639e-05    -6.583e-02   3.503e-02   /
#      CHEB/ -1.069e-02   1.429e-03    2.560e-03    3.667e-04    -4.311e-04  /
#      CHEB/ -2.031e-04   -2.837e-02   7.581e-03    -2.537e-03   1.062e-04   /
#      CHEB/ -1.622e-04   7.438e-04    9.414e-05    -1.911e-04   -1.089e-02  /
#      CHEB/ -7.229e-03   2.284e-03    -1.202e-04   -7.199e-04   2.605e-04   /
#      CHEB/ 1.936e-04    -1.801e-05   -1.449e-03   -6.591e-03   2.119e-03   /
#      CHEB/ -5.432e-04   -9.697e-05   -5.345e-05   3.697e-05    5.991e-05   /

# Reaction 5
chebyshev_reaction('bQOOHa (+ M) <=> bQOOHg (+ M)',
                   Tmin=180.0, Tmax=1500.0,
                   Pmin=(0.01, 'atm'), Pmax=(98.692, 'atm'),
                   coeffs=[[-7.87600e+00,  5.84200e-01, -3.79500e-01, -3.08000e-02,  7.72400e-03,  1.88500e-03, -6.42000e-04, -1.35000e-04],
                           [ 8.84400e+00,  2.26900e+00, -1.86000e-03, -4.86100e-02, -2.49600e-02,  1.17600e-03,  2.77000e-03,  2.02800e-05],
                           [ 2.11200e-02,  6.22700e-01,  1.20800e-01,  7.65800e-03, -6.48300e-03, -5.19200e-03, -9.54600e-04,  6.27800e-04],
                           [-5.12000e-01,  1.01000e-01,  9.29300e-02,  2.94500e-03,  1.08200e-03, -1.84500e-04, -7.71400e-04, -3.73900e-04],
                           [-2.18800e-01,  4.60500e-02,  2.30900e-02,  6.02900e-03,  1.41700e-03, -1.03100e-03,  3.41400e-04,  2.03300e-04],
                           [-5.15600e-02,  4.26100e-02, -1.04100e-02,  4.93100e-03,  2.85900e-03, -9.14800e-04, -4.64400e-04,  2.55600e-04],
                           [-9.23000e-03,  1.05300e-02, -6.60400e-03,  1.50000e-03,  1.13000e-03,  5.17900e-04, -3.82400e-04, -2.17800e-04],
                           [-9.59500e-03, -8.06500e-03,  1.58700e-03, -1.94800e-04, -4.34200e-04,  5.69700e-04,  1.51800e-04, -2.01200e-04],
                           [-3.74300e-03, -1.03300e-02,  2.98500e-03, -2.74400e-04, -2.99700e-04, -1.69400e-06,  1.67000e-04,  3.25800e-05],
                           [-3.04900e-03, -4.98300e-03,  1.00800e-03, -3.41600e-04,  9.23600e-05, -5.55800e-05, -1.28800e-05,  5.67000e-05]])

# Reaction 6
chebyshev_reaction('bQOOH[O] (+ M) <=> bQOOHg (+ M)',
                   Tmin=180.0, Tmax=1500.0,
                   Pmin=(0.01, 'atm'), Pmax=(98.692, 'atm'),
                   coeffs=[[-1.22800e+00,  8.17700e-01, -4.04800e-01, -6.36500e-02, -2.75500e-03,  7.65300e-03,  2.78100e-03, -4.47100e-04],
                           [ 4.18900e+00,  1.81700e+00, -8.19700e-02, -1.82000e-02, -7.25400e-03, -3.19300e-03, -5.46200e-04,  4.80800e-04],
                           [-7.59800e-02,  7.06100e-01,  1.62600e-01, -2.03700e-02, -1.62300e-02, -3.48900e-03,  3.83700e-04,  7.05600e-04],
                           [-4.70800e-01,  1.08400e-01,  9.91300e-02,  9.75400e-03, -2.57100e-03, -2.66000e-03, -4.22000e-04, -5.94000e-05],
                           [-2.57600e-01,  7.79700e-02,  2.79600e-02,  1.37000e-02,  2.17700e-03, -3.29800e-03, -9.26100e-04,  4.41400e-04],
                           [-3.15400e-02,  1.66800e-02, -1.60700e-02,  5.19100e-03,  5.95400e-03,  1.05700e-03, -9.58800e-04, -4.67400e-04],
                           [-2.57400e-02,  2.41000e-02,  3.00000e-03,  1.76800e-04, -8.28000e-04,  4.70500e-04,  2.23100e-04, -1.03700e-04],
                           [-8.67400e-03, -1.13500e-02, -4.00000e-04, -3.51300e-04,  8.67100e-05,  5.11000e-04,  2.65200e-04, -1.09500e-04],
                           [-6.02700e-03, -8.78900e-03,  1.41100e-03, -1.26800e-04,  1.29900e-04, -2.68700e-05,  3.93400e-07,  3.71400e-05],
                           [-1.12400e-02,  2.19900e-03,  3.18600e-03, -4.04800e-04, -6.52500e-04, -1.80900e-04,  5.08400e-05,  1.07500e-04]])

# Reaction 7
chebyshev_reaction('O2 + bR (+ M) <=> bQOOHg (+ M)',
                   Tmin=180.0, Tmax=1500.0,
                   Pmin=(0.01, 'atm'), Pmax=(98.692, 'atm'),
                   coeffs=[[ 7.24500e+00,  1.41900e-01, -3.95900e-01,  2.54700e-03,  1.19900e-02,  4.10600e-04, -1.89200e-03, -6.42700e-05],
                           [ 4.48700e-01,  1.44300e+00,  1.35700e-01, -7.30500e-02, -1.75700e-02,  2.99400e-03,  3.48900e-03, -4.40300e-04],
                           [-1.67800e-01,  3.44000e-01,  1.46300e-01,  2.64600e-03, -1.23400e-02, -4.10300e-03,  1.70300e-04,  1.20100e-03],
                           [-1.20400e-01,  9.08300e-03,  4.95700e-02,  2.03600e-02, -6.31100e-04, -2.56900e-03, -1.25400e-03,  1.09100e-04],
                           [-2.80300e-03, -1.48300e-02,  8.76500e-04,  1.03400e-02,  3.25800e-03, -5.32300e-04, -6.32300e-04, -3.31600e-04],
                           [ 1.94200e-02, -7.08400e-03, -2.51700e-03,  2.42900e-03,  2.05800e-03,  2.35200e-04, -1.50500e-04, -1.71600e-04],
                           [ 1.02800e-02, -9.04900e-03, -8.85600e-05,  8.32400e-04,  6.37100e-04,  3.51600e-04,  8.58000e-06, -6.88300e-05],
                           [ 3.80700e-04, -1.04900e-02, -5.20600e-04,  4.10000e-04,  1.87900e-04,  2.59500e-04,  6.22600e-05, -2.66800e-05],
                           [ 5.73000e-04, -6.52000e-03, -1.83800e-03,  9.92200e-05,  8.32500e-05,  7.18000e-05,  7.15100e-05,  1.46500e-05],
                           [ 5.22600e-04, -1.67200e-03, -1.64500e-03, -3.89200e-04,  8.40300e-05,  1.71100e-05,  1.53500e-05,  1.93400e-05]])
#  bRO2(+M) <=> bQOOHa(+M)                             1.000e+00 0.000     0.000
#      TCHEB/ 180.000   1500.000 /
#      PCHEB/ 0.010     98.692   /
#      CHEB/ 10 8/
#      CHEB/ -4.406e-01   9.203e-01    -1.061e-01   -1.233e-02   -1.050e-03  /
#      CHEB/ 4.869e-04    1.559e-04    -3.592e-05   6.563e+00    1.345e+00   /
#      CHEB/ -1.013e-01   -1.991e-02   -6.320e-03   6.241e-04    4.261e-04   /
#      CHEB/ -1.429e-05   -9.848e-03   4.943e-01    4.252e-02    1.278e-03   /
#      CHEB/ -1.047e-02   -1.133e-03   4.442e-04    1.239e-04    -2.718e-01  /
#      CHEB/ 5.828e-02    5.536e-02    1.627e-02    -3.950e-03   -2.527e-03  /
#      CHEB/ -2.544e-04   1.604e-04    -2.089e-01   2.006e-02    9.564e-03   /
#      CHEB/ 9.325e-03    4.271e-03    -1.121e-03   -8.222e-04   -8.277e-05  /
#      CHEB/ -1.334e-01   5.839e-02    -1.040e-02   -1.606e-03   4.521e-03   /
#      CHEB/ 8.735e-04    -3.822e-04   -2.702e-04   -7.992e-02   4.680e-02   /
#      CHEB/ -5.317e-03   -3.586e-03   7.438e-04    1.071e-03    2.711e-04   /
#      CHEB/ -1.358e-04   -4.171e-02   1.539e-02    2.039e-03    -1.250e-03  /
#      CHEB/ -1.159e-03   3.064e-04    3.460e-04    6.189e-05    -1.763e-02  /
#      CHEB/ -2.175e-03   4.023e-03    6.772e-05    -8.926e-04   -1.430e-04  /
#      CHEB/ 1.122e-04    9.280e-05    -5.832e-03   -4.890e-03   2.437e-03   /
#      CHEB/ 2.736e-04    -2.053e-04   -2.080e-04   -2.138e-05   3.675e-05   /
#  bQOOHg(+M) <=> bQOOHa(+M)                           1.000e+00 0.000     0.000
#      TCHEB/ 180.000   1500.000 /
#      PCHEB/ 0.010     98.692   /
#      CHEB/ 10 8/
#      CHEB/ -2.271e+00   5.842e-01    -3.795e-01   -3.080e-02   7.724e-03   /
#      CHEB/ 1.885e-03    -6.420e-04   -1.350e-04   4.210e+00    2.269e+00   /
#      CHEB/ -1.860e-03   -4.861e-02   -2.496e-02   1.176e-03    2.770e-03   /
#      CHEB/ 2.028e-05    -6.963e-02   6.227e-01    1.208e-01    7.658e-03   /
#      CHEB/ -6.483e-03   -5.192e-03   -9.546e-04   6.278e-04    -5.478e-01  /
#      CHEB/ 1.010e-01    9.293e-02    2.945e-03    1.082e-03    -1.845e-04  /
#      CHEB/ -7.714e-04   -3.739e-04   -2.294e-01   4.605e-02    2.309e-02   /
#      CHEB/ 6.029e-03    1.417e-03    -1.031e-03   3.414e-04    2.033e-04   /
#      CHEB/ -5.419e-02   4.261e-02    -1.041e-02   4.931e-03    2.859e-03   /
#      CHEB/ -9.148e-04   -4.644e-04   2.556e-04    -9.996e-03   1.053e-02   /
#      CHEB/ -6.604e-03   1.500e-03    1.130e-03    5.179e-04    -3.824e-04  /
#      CHEB/ -2.178e-04   -9.866e-03   -8.065e-03   1.587e-03    -1.948e-04  /
#      CHEB/ -4.342e-04   5.697e-04    1.518e-04    -2.012e-04   -3.768e-03  /
#      CHEB/ -1.033e-02   2.985e-03    -2.744e-04   -2.997e-04   -1.694e-06  /
#      CHEB/ 1.670e-04    3.258e-05    -2.982e-03   -4.983e-03   1.008e-03   /
#      CHEB/ -3.416e-04   9.236e-05    -5.558e-05   -1.288e-05   5.670e-05   /

# Reaction 8
chebyshev_reaction('bQOOH[O] (+ M) <=> bQOOHa (+ M)',
                   Tmin=180.0, Tmax=1500.0,
                   Pmin=(0.01, 'atm'), Pmax=(98.692, 'atm'),
                   coeffs=[[ 4.91500e+00,  1.19400e+00, -4.78400e-01, -7.70700e-02,  3.31200e-03,  6.87900e-03,  2.03200e-03,  1.13700e-04],
                           [ 7.37300e-01,  1.18700e+00,  1.39100e-01, -2.25700e-02, -3.00600e-02, -4.92100e-04,  1.87400e-03, -1.08100e-04],
                           [-4.76100e-01,  4.71200e-01,  9.55000e-02,  3.51700e-02, -1.02200e-02, -1.07400e-02, -8.29200e-04,  1.45800e-03],
                           [-3.93800e-01,  1.59700e-01,  1.60000e-02,  1.45500e-02,  1.12900e-02, -1.22100e-03, -2.80400e-03, -6.73200e-04],
                           [-2.40000e-01,  1.16600e-01,  2.19000e-02, -2.12800e-03,  3.36800e-03,  1.16100e-03, -4.76100e-04, -4.56000e-04],
                           [-5.58100e-02,  2.34500e-02, -2.28000e-04, -2.09000e-03,  1.84400e-03,  2.00900e-03,  4.94500e-04, -3.50700e-04],
                           [-5.04600e-02,  3.12400e-02,  6.92000e-03,  7.81200e-04, -2.10700e-03, -5.39200e-04,  5.09100e-04,  3.21600e-04],
                           [-2.03800e-02,  7.84000e-04, -2.72000e-03,  1.08400e-03,  1.38100e-04, -1.16800e-04,  5.72800e-05,  4.06900e-05],
                           [-1.16700e-02, -3.50000e-03, -7.39600e-04,  6.85800e-04,  3.43400e-04, -1.44700e-04, -1.13200e-04, -1.94700e-05],
                           [-1.83400e-02,  5.08400e-03,  2.82700e-03, -5.66400e-04, -3.98900e-04, -1.48800e-04, -1.36100e-05,  5.69000e-05]])

# Reaction 9
chebyshev_reaction('O2 + bR (+ M) <=> bQOOHa (+ M)',
                   Tmin=180.0, Tmax=1500.0,
                   Pmin=(0.01, 'atm'), Pmax=(98.692, 'atm'),
                   coeffs=[[ 1.08200e+01,  4.33900e-01, -3.05500e-01, -3.18500e-02, -1.13600e-02,  4.36400e-03,  2.75900e-03, -2.78100e-04],
                           [-8.45600e-01,  1.07900e+00,  1.03400e-01, -3.39500e-03, -1.63900e-04, -9.16900e-03, -1.99800e-03,  9.50900e-04],
                           [-6.22800e-01,  3.19000e-01,  9.85500e-02, -3.04600e-03,  2.57000e-03,  1.49900e-03, -1.81200e-03, -5.73100e-04],
                           [-3.03200e-01,  6.27900e-02,  4.18100e-02,  6.36500e-03, -3.79800e-04,  1.43400e-03,  1.66900e-04, -2.84000e-04],
                           [-8.16000e-02,  2.22000e-02,  4.31200e-03,  5.30000e-03,  7.27000e-04, -1.50700e-04,  3.93300e-04,  6.63500e-05],
                           [-1.40100e-02,  1.12000e-02, -4.98200e-04,  1.02000e-03,  7.58600e-04, -2.14500e-04,  8.77300e-05,  1.00800e-04],
                           [-1.57800e-03, -2.70700e-03,  1.75500e-03,  4.21900e-04, -4.47400e-05,  2.20600e-05, -1.67800e-05,  1.39800e-05],
                           [-5.97100e-03, -9.60700e-03,  2.20000e-03,  7.16800e-04, -3.34200e-04,  2.01600e-05,  1.19500e-06, -8.74900e-06],
                           [-9.03100e-04, -9.51900e-03, -3.09300e-04,  7.23500e-04,  1.46100e-05,  1.07900e-05, -9.51200e-06, -2.29700e-05],
                           [-1.85600e-03, -4.78100e-03, -7.39000e-04,  1.62000e-04,  4.27800e-05, -2.34000e-05,  3.99500e-06,  6.33000e-06]])
#  bRO2(+M) <=> bQOOH[O](+M)                           1.000e+00 0.000     0.000
#      TCHEB/ 180.000   1500.000 /
#      PCHEB/ 0.010     98.692   /
#      CHEB/ 10 8/
#      CHEB/ -3.110e+00   1.793e+00    -2.339e-01   -6.307e-02   -8.286e-03  /
#      CHEB/ 6.759e-03    3.315e-03    5.030e-05    9.693e+00    4.097e-01   /
#      CHEB/ 2.758e-03    1.699e-02    -8.499e-03   -3.799e-03   -4.695e-04  /
#      CHEB/ 5.063e-04    -5.639e-01   3.096e-01    1.137e-02    9.952e-03   /
#      CHEB/ -4.181e-03   -3.030e-03   -5.928e-04   2.675e-04    -3.014e-01  /
#      CHEB/ 1.518e-01    -2.301e-03   2.698e-03    3.110e-03    7.175e-05   /
#      CHEB/ -6.272e-04   -4.263e-04   -2.617e-01   1.300e-01    2.309e-02   /
#      CHEB/ -3.663e-04   -1.335e-03   -1.286e-03   -1.288e-04   1.911e-04   /
#      CHEB/ -1.093e-01   3.512e-02    3.590e-03    5.048e-04    2.157e-03   /
#      CHEB/ 5.338e-04    -2.897e-04   -2.597e-04   -9.553e-02   3.593e-02   /
#      CHEB/ 1.004e-02    8.962e-04    -8.681e-04   -3.411e-04   5.825e-05   /
#      CHEB/ 7.362e-05    -3.277e-02   3.661e-03    -2.535e-04   9.671e-04   /
#      CHEB/ 4.486e-04    2.491e-04    5.572e-05    -7.478e-05   -1.557e-02  /
#      CHEB/ -1.570e-03   -4.704e-04   8.284e-04    3.065e-04    2.211e-05   /
#      CHEB/ 6.474e-06    -1.916e-05   -1.630e-02   4.910e-03    2.332e-03   /
#      CHEB/ -2.540e-04   -5.428e-04   -1.461e-04   1.109e-04    7.913e-05   /
#  bQOOHg(+M) <=> bQOOH[O](+M)                         1.000e+00 0.000     0.000
#      TCHEB/ 180.000   1500.000 /
#      PCHEB/ 0.010     98.692   /
#      CHEB/ 10 8/
#      CHEB/ -2.920e+00   8.177e-01    -4.048e-01   -6.365e-02   -2.755e-03  /
#      CHEB/ 7.653e-03    2.781e-03    -4.471e-04   4.843e+00    1.817e+00   /
#      CHEB/ -8.197e-02   -1.820e-02   -7.254e-03   -3.193e-03   -5.462e-04  /
#      CHEB/ 4.808e-04    -2.276e-01   7.061e-01    1.626e-01    -2.037e-02  /
#      CHEB/ -1.623e-02   -3.489e-03   3.837e-04    7.056e-04    -5.290e-01  /