units(length='cm', time='s', quantity='mol', act_energy='kcal/mol')

ideal_gas(name='gas',
          elements="H D T C Ci O Oi N Ne Ar He Si S F Cl Br I X",
          species="""propene3ol       OH               disub_c4ether
                     H2O              disub_epoxy      gQOOHa
                     propene1ol       gQOOHb           ipropylOOH
                     galdoxy          galkene          CH2O
                     O2               gRO2             gQOOHg
                     gR               galdol           monosub_c4ether
                     HO2              gQOOH[O]""",
          reactions='all',
          initial_state=state(temperature=300.0, pressure=OneAtm))

#-------------------------------------------------------------------------------
# Element data
#-------------------------------------------------------------------------------

element(symbol='Ci', atomic_mass=13.003)
element(symbol='D', atomic_mass=2.014)
element(symbol='Oi', atomic_mass=18.0)
element(symbol='T', atomic_mass=3.016)
element(symbol='X', atomic_mass=195.083)
#-------------------------------------------------------------------------------
# Species data
#-------------------------------------------------------------------------------

species(name='propene3ol',
        atoms='C:3 H:6 O:1',
        thermo=(NASA([10.00, 444.81],
                     [ 3.92769709E+00,  4.89977303E-03,  1.13094874E-04,
                      -2.59008187E-07,  1.86205760E-10, -1.92994370E+04,
                       9.90805416E+00]),
                NASA([444.81, 3000.00],
                     [ 2.61720343E+00,  3.01777872E-02, -1.76511625E-05,
                       5.14864061E-09, -5.91153761E-13, -1.93163375E+04,
                       1.36683107E+01])))

species(name='OH',
        atoms='H:1 O:1',
        thermo=(NASA([10.00, 984.14],
                     [ 3.49686242E+00,  1.83973160E-04, -9.97634499E-07,
                       1.56942783E-09, -6.10128175E-13,  3.41673934E+03,
                       1.48093120E+00]),
                NASA([984.14, 3000.00],
                     [ 3.45221464E+00, -2.95124034E-04,  7.39418622E-07,
                      -2.89309866E-10,  3.53041498E-14,  3.45751599E+03,
                       1.85813897E+00])))

species(name='disub_c4ether',
        atoms='C:4 H:8 O:2',
        thermo=(NASA([10.00, 413.50],
                     [ 3.78241323E+00,  1.89501763E-02,  8.65302396E-05,
                      -1.80580575E-07,  1.13656264E-10, -3.82581847E+04,
                       1.09982450E+01]),
                NASA([413.50, 3000.00],
                     [ 4.29420885E-01,  5.13851903E-02, -3.11292293E-05,
                       9.11498284E-09, -1.03192718E-12, -3.79808903E+04,
                       2.42134976E+01])))

species(name='H2O',
        atoms='H:2 O:1',
        thermo=(NASA([10.00, 773.84],
                     [ 4.00473541E+00, -2.39729134E-04,  8.11862955E-07,
                       1.47891862E-09, -1.19783539E-12, -3.03533807E+04,
                      -9.96254147E-02]),
                NASA([773.84, 3000.00],
                     [ 3.52133374E+00,  1.05377009E-03,  6.40722099E-07,
                      -3.86240235E-10,  5.49243294E-14, -3.02424794E+04,
                       2.34173094E+00])))

species(name='disub_epoxy',
        atoms='C:4 H:8 O:2',
        thermo=(NASA([10.00, 549.41],
                     [ 3.89863211E+00,  5.97532637E-03,  1.66685676E-04,
                      -3.10743768E-07,  1.78330192E-10, -3.50256704E+04,
                       1.13847308E+01]),
                NASA([549.41, 3000.00],
                     [-6.40277648E-01,  6.05960003E-02, -4.13427220E-05,
                       1.31555461E-08, -1.57685017E-12, -3.48525535E+04,
                       2.76005436E+01])))

species(name='gQOOHa',
        atoms='C:4 H:9 O:3',
        thermo=(NASA([10.00, 160.74],
                     [ 3.80808147E+00,  2.31043884E-02,  5.26945984E-04,
                      -3.11500696E-06,  6.03881958E-09, -2.77087473E+04,
                       1.17645316E+01]),
                NASA([160.74, 3000.00],
                     [ 2.90630300E+00,  6.50241173E-02, -4.60073244E-05,
                       1.51330930E-08, -1.87074267E-12, -2.77049227E+04,
                       1.36838819E+01])))

species(name='propene1ol',
        atoms='C:3 H:6 O:1',
        thermo=(NASA([10.00, 459.42],
                     [ 3.91245344E+00,  5.85800161E-03,  1.15412006E-04,
                      -2.68014417E-07,  1.91800131E-10, -1.81585095E+04,
                       8.14807684E+00]),
                NASA([459.42, 3000.00],
                     [ 3.14049093E+00,  2.95550898E-02, -1.73843684E-05,
                       5.11506211E-09, -5.92966137E-13, -1.82667320E+04,
                       9.32215170E+00])))

species(name='gQOOHb',
        atoms='C:4 H:9 O:3',
        thermo=(NASA([10.00, 1018.67],
                     [ 3.99028351E+00,  4.29665712E-02,  2.28338778E-05,
                      -5.67914439E-08,  2.29383258E-11, -2.47183366E+04,
                       1.20326731E+01]),
                NASA([1018.67, 3000.00],
                     [ 1.38304153E+01,  3.88527019E-02, -2.19473905E-05,
                       5.78719895E-09, -5.85097740E-13, -2.85144214E+04,
                      -4.44147388E+01])))

species(name='ipropylOOH',
        atoms='C:3 H:7 O:2',
        thermo=(NASA([10.00, 405.01],
                     [ 3.30075623E+00,  7.58672756E-02, -3.35754269E-04,
                       8.05972164E-07, -6.68864582E-10, -1.57821811E+03,
                       1.43372849E+01]),
                NASA([405.01, 3000.00],
                     [ 2.51742509E+00,  3.72760950E-02, -2.12450220E-05,
                       5.83593926E-09, -6.22110649E-13, -1.13481050E+03,
                       2.20991392E+01])))

species(name='galdoxy',
        atoms='C:4 H:7 O:2',
        thermo=(NASA([10.00, 209.62],
                     [ 3.82641108E+00,  1.84758886E-02,  3.43073800E-04,
                      -1.82817005E-06,  2.98516720E-09, -1.78592286E+04,
                       1.17972706E+01]),
                NASA([209.62, 3000.00],
                     [ 4.22049016E+00,  4.03370149E-02, -2.36129482E-05,
                       6.72979114E-09, -7.47862493E-13, -1.79402984E+04,
                       8.97211724E+00])))

species(name='galkene',
        atoms='C:4 H:8 O:1',
        thermo=(NASA([10.00, 383.47],
                     [ 3.84035604E+00,  1.20378740E-02,  1.87486319E-04,
                      -5.44759148E-07,  4.80711015E-10, -2.14910725E+04,
                       1.02570291E+01]),
                NASA([383.47, 3000.00],
                     [ 4.00413385E+00,  3.79025144E-02, -2.15435710E-05,
                       6.15213311E-09, -6.97446345E-13, -2.17063618E+04,
                       6.98052628E+00])))

species(name='CH2O',
        atoms='C:1 H:2 O:1',
        thermo=(NASA([10.00, 601.31],
                     [ 4.03190845E+00, -1.93233367E-03,  8.89743345E-06,
                       2.98105926E-09, -7.90813886E-12, -1.42276270E+04,
                       3.47574660E+00]),
                NASA([601.31, 3000.00],
                     [ 1.40134195E+00,  9.48858016E-03, -4.43088317E-06,
                       9.48452194E-10, -7.43790219E-14, -1.38013869E+04,
                       1.57423780E+01])))

species(name='O2',
        atoms='O:2',
        thermo=(NASA([10.00, 605.96],
                     [ 3.50743498E+00, -4.43860349E-04,  1.45938058E-06,
                       1.61509333E-09, -2.32050052E-12, -9.24756224E+02,
                       4.72183634E+00]),
                NASA([605.96, 3000.00],
                     [ 2.87462882E+00,  2.17840991E-03, -1.18262921E-06,
                       2.86910493E-10, -2.53297146E-14, -8.19517838E+02,
                       7.69331810E+00])))

species(name='gRO2',
        atoms='C:4 H:9 O:3',
        thermo=(NASA([10.00, 177.33],
                     [ 3.70632176E+00,  3.49733664E-02,  4.64036392E-04,
                      -3.18637835E-06,  6.38178607E-09, -2.88705636E+04,
                       1.24459269E+01]),
                NASA([177.33, 3000.00],
                     [ 4.82062697E+00,  5.17179689E-02, -3.18386818E-05,
                       9.52247045E-09, -1.10180288E-12, -2.89759342E+04,
                       7.14082953E+00])))

species(name='gQOOHg',
        atoms='C:4 H:9 O:3',
        thermo=(NASA([10.00, 475.03],
                     [ 3.42273720E+00,  4.98344215E-02,  6.47820920E-05,
                      -2.49842966E-07,  1.98636537E-10, -2.28541467E+04,
                       1.41578583E+01]),
                NASA([475.03, 3000.00],
                     [ 5.94049074E+00,  5.53778585E-02, -3.71708255E-05,
                       1.17540477E-08, -1.40812095E-12, -2.33951010E+04,
                       7.09201218E-01])))

species(name='gR',
        atoms='C:4 H:9 O:1',
        thermo=(NASA([10.00, 638.24],
                     [ 3.37074633E+00,  5.17529751E-02, -6.54872940E-05,
                       6.88084237E-08, -3.21569794E-11, -1.42062957E+04,
                       1.14339669E+01]),
                NASA([638.24, 3000.00],
                     [ 3.99410860E+00,  4.06314915E-02, -2.23932510E-05,
                       6.08356263E-09, -6.49884708E-13, -1.41389210E+04,
                       9.85769960E+00])))

species(name='galdol',
        atoms='C:4 H:8 O:2',
        thermo=(NASA([10.00, 506.68],
                     [ 3.85380874E+00,  9.21272695E-03,  1.86712348E-04,
                      -3.96417049E-07,  2.55528268E-10, -4.55787632E+04,
                       1.24312743E+01]),
                NASA([506.68, 3000.00],
                     [ 1.49710213E+00,  5.65979142E-02, -3.87709084E-05,
                       1.23682052E-08, -1.48287964E-12, -4.57093726E+04,
                       1.85531759E+01])))

species(name='monosub_c4ether',
        atoms='C:4 H:8 O:2',
        thermo=(NASA([10.00, 380.36],
                     [ 3.47743996E+00,  6.08051311E-02, -2.78518945E-04,
                       8.23182713E-07, -7.87158031E-10, -3.00054551E+04,
                       1.06415154E+01]),
                NASA([380.36, 3000.00],
                     [-1.09346901E+00,  5.35985968E-02, -3.21081420E-05,
                       9.20818293E-09, -1.01830294E-12, -2.92578950E+04,
                       3.35312368E+01])))

species(name='HO2',
        atoms='H:1 O:2',
        thermo=(NASA([10.00, 891.11],
                     [ 4.02887004E+00, -1.75769289E-03,  1.08726004E-05,
                      -1.13812972E-08,  3.90113097E-12,  4.95165001E+02,
                       4.69302008E+00]),
                NASA([891.11, 3000.00],
                     [ 3.06571044E+00,  4.28505005E-03, -2.19325920E-06,
                       5.58882699E-10, -5.61246669E-14,  5.98557610E+02,
                       8.84564156E+00])))

species(name='gQOOH[O]',
        atoms='C:4 H:9 O:3',
        thermo=(NASA([10.00, 535.23],
                     [ 3.83107445E+00,  1.02302002E-02,  2.29377261E-04,
                      -4.59095575E-07,  2.77765018E-10, -1.87694952E+04,
                       1.41034859E+01]),
                NASA([535.23, 3000.00],
                     [-4.19283096E-01,  7.69784620E-02, -5.57279000E-05,
                       1.81378295E-08, -2.18295635E-12, -1.88156085E+04,
                       2.72711816E+01])))

#-------------------------------------------------------------------------------
# Reaction data
#-------------------------------------------------------------------------------

# Reaction 1
chebyshev_reaction('gQOOH[O] (+ M) <=> gRO2 (+ M)',
                   Tmin=180.0, Tmax=1500.0,
                   Pmin=(0.01, 'atm'), Pmax=(98.692, 'atm'),
                   coeffs=[[ 5.08900e+00,  1.03300e+00, -1.59700e-01,  3.97200e-03,  8.88800e-03,  1.69000e-04, -1.03400e-03, -5.01000e-06],
                           [-3.06200e+00,  6.80200e-01,  1.80700e-02,  3.43400e-03,  3.31200e-04, -1.30100e-03,  7.33300e-05,  2.85300e-04],
                           [-3.31900e+00, -7.44200e-02,  3.21400e-02,  2.57000e-02, -1.82100e-03, -3.21900e-03,  9.63100e-05,  5.44400e-04],
                           [-1.84000e+00, -1.23900e-01, -1.02700e-02,  5.07500e-03,  4.04900e-04, -6.03600e-04,  1.52300e-04,  8.24900e-05],
                           [-8.83400e-01, -2.01800e-02, -8.46100e-03, -7.35500e-03, -1.72800e-03,  6.34500e-04,  4.11800e-04, -9.25000e-05],
                           [-3.86000e-01,  1.77500e-02,  2.33400e-03, -4.32500e-03, -1.35900e-03,  2.15400e-04,  9.81900e-05, -3.77100e-05],
                           [-1.57500e-01,  7.98300e-03,  5.47000e-04, -5.50700e-04,  5.72500e-04,  6.05800e-05, -1.84500e-04, -2.78200e-05],
                           [-6.11200e-02, -3.52400e-03, -5.06100e-03, -4.74000e-04,  8.89300e-04,  1.72900e-04, -1.30100e-04, -1.93500e-05],
                           [-2.15600e-02, -1.03100e-03, -5.37600e-03, -1.52100e-03,  8.42300e-05,  9.46300e-05, -9.44900e-06,  8.13200e-06],
                           [-2.36300e-03,  4.29600e-03, -6.51800e-04, -1.25600e-03, -4.44900e-04, -1.10800e-04,  1.66300e-05,  2.26900e-05]])

# Reaction 2
chebyshev_reaction('gQOOHa (+ M) <=> gRO2 (+ M)',
                   Tmin=180.0, Tmax=1500.0,
                   Pmin=(0.01, 'atm'), Pmax=(98.692, 'atm'),
                   coeffs=[[-2.17300e-01,  3.74800e-01,  4.64200e-03,  6.16800e-03, -1.51600e-05,  1.62300e-04, -1.00900e-05, -2.29500e-05],
                           [ 4.43800e+00,  6.33400e-01,  2.03200e-02,  1.04100e-02,  4.41200e-04,  2.48100e-04, -1.35800e-05, -3.92000e-05],
                           [-2.10300e+00,  3.52200e-01,  4.00500e-02,  7.06400e-03,  1.25400e-03,  1.41100e-04, -5.16600e-06, -2.04800e-05],
                           [-1.63300e+00,  5.46100e-02,  4.40300e-02,  5.89900e-03,  1.55400e-03,  1.52200e-04,  3.61200e-06,  3.59400e-06],
                           [-1.00700e+00, -1.37100e-01,  2.33000e-02,  6.55000e-03,  1.39300e-03,  2.35900e-04,  3.46800e-05,  2.48700e-05],
                           [-5.06200e-01, -1.90500e-01, -8.83300e-03,  5.58100e-03,  1.29600e-03,  2.93000e-04,  8.97000e-05,  4.06200e-05],
                           [-2.29100e-01, -1.47800e-01, -3.23400e-02,  1.24500e-03,  1.27400e-03,  3.40800e-04,  1.38300e-04,  4.91700e-05],
                           [-4.08800e-02, -7.20900e-02, -3.71700e-02, -4.50200e-03,  8.47500e-04,  4.19100e-04,  1.59100e-04,  4.45200e-05],
                           [-2.81900e-03, -7.66100e-03, -2.65100e-02, -8.27400e-03, -1.76300e-04,  4.48000e-04,  1.56200e-04,  2.42200e-05],
                           [ 3.63500e-02,  2.88300e-02, -9.78400e-03, -8.24900e-03, -1.36600e-03,  2.88200e-04,  1.29800e-04, -1.49400e-06]])

# Reaction 3
chebyshev_reaction('gQOOHg (+ M) <=> gRO2 (+ M)',
                   Tmin=180.0, Tmax=1500.0,
                   Pmin=(0.01, 'atm'), Pmax=(98.692, 'atm'),
                   coeffs=[[ 3.27200e+00,  5.47500e-01, -2.24500e-02,  1.59500e-02, -4.03500e-04, -7.44100e-05,  8.51200e-05, -2.28100e-05],
                           [-1.17400e-01,  8.24000e-01,  4.80900e-03,  1.97700e-02,  1.37400e-03, -1.70800e-04,  8.51800e-05, -3.37200e-05],
                           [-2.78100e+00,  2.64200e-01,  7.06500e-02,  6.94500e-03,  2.57100e-03,  4.04800e-04, -1.06300e-04, -2.71800e-05],
                           [-1.91200e+00, -1.65300e-01,  5.61200e-02,  1.03300e-02,  1.42400e-03,  7.90300e-04, -3.04100e-05, -6.24900e-05],
                           [-1.02700e+00, -2.94600e-01, -1.50200e-02,  1.29700e-02,  2.07200e-03,  4.74600e-04,  1.73400e-04, -3.47300e-05],
                           [-4.15400e-01, -2.13500e-01, -6.55400e-02,  1.47500e-03,  3.63200e-03,  5.22600e-04,  1.93200e-04,  5.71300e-05],
                           [-1.30300e-01, -7.60400e-02, -6.30600e-02, -1.41400e-02,  1.93900e-03,  1.20500e-03,  2.22900e-04,  9.11800e-05],
                           [ 4.63100e-03,  2.21500e-02, -2.76200e-02, -1.92500e-02, -2.66400e-03,  1.25000e-03,  4.67300e-04,  7.39800e-05],
                           [ 2.94100e-02,  5.75200e-02,  7.52300e-03, -1.15000e-02, -5.91400e-03, -2.20500e-06,  6.01100e-04,  1.06600e-04],
                           [ 2.41600e-02,  4.78900e-02,  2.36900e-02,  8.77900e-04, -5.02300e-03, -1.59900e-03,  2.38700e-04,  1.63700e-04]])

# Reaction 4
chebyshev_reaction('gQOOHb (+ M) <=> gRO2 (+ M)',
                   Tmin=180.0, Tmax=1500.0,
                   Pmin=(0.01, 'atm'), Pmax=(98.692, 'atm'),
                   coeffs=[[ 1.63700e+00,  4.97800e-01,  2.65000e-02, -3.45100e-03, -1.02100e-03,  4.88700e-04, -1.93500e-05,  7.44700e-07],
                           [-5.99300e-01,  7.51200e-01,  5.75200e-02, -5.17100e-03, -8.68600e-04,  4.73900e-04,  3.99200e-05, -1.52700e-05],
                           [-2.93700e+00,  2.35900e-01,  4.79400e-02,  1.51900e-03,  5.60700e-04, -7.69300e-05,  4.12500e-05, -1.10400e-05],
                           [-1.82700e+00, -1.56900e-01,  9.94300e-03,  6.57800e-03,  1.49800e-03, -1.90400e-04, -2.79200e-05, -1.45400e-06],
                           [-8.88700e-01, -2.40100e-01, -3.01700e-02,  3.73500e-03,  1.58500e-03,  4.53800e-05, -5.57100e-05, -2.11100e-06],
                           [-2.96900e-01, -1.19200e-01, -3.86600e-02, -3.46400e-03,  4.92300e-04,  2.30600e-04,  3.72700e-07, -1.25800e-06],
                           [-8.84700e-02,  8.63900e-03, -1.67500e-02, -6.33800e-03, -9.86400e-04,  8.58800e-05,  6.08700e-05,  1.20600e-05],
                           [ 1.86200e-02,  4.70400e-02,  7.05800e-03, -2.57200e-03, -1.30700e-03, -2.19500e-04,  3.87600e-05,  2.05500e-05],
                           [-3.59300e-02,  2.10500e-02,  1.23000e-02,  2.45400e-03, -2.36900e-04, -2.64900e-04, -4.28100e-05,  5.15400e-06],
                           [-7.35900e-03, -8.96700e-03,  2.97700e-03,  3.34300e-03,  9.08800e-04,  3.79000e-06, -7.28500e-05, -2.20100e-05]])

# Reaction 5
chebyshev_reaction('O2 + gR (+ M) <=> gRO2 (+ M)',
                   Tmin=180.0, Tmax=1500.0,
                   Pmin=(0.01, 'atm'), Pmax=(98.692, 'atm'),
                   coeffs=[[ 1.22300e+01,  7.79300e-01, -7.43700e-02,  7.09000e-03, -7.68200e-04,  7.17000e-05, -4.42800e-05,  1.98300e-05],
                           [-3.17600e+00,  9.95000e-01, -5.92500e-04, -1.04100e-02,  3.28900e-04,  3.02800e-04, -5.10800e-05, -1.12500e-05],
                           [-1.87100e+00,  3.52200e-01,  5.70300e-02, -4.09100e-04, -1.62700e-03, -4.34500e-05,  7.20200e-05, -8.24500e-07],
                           [-1.04100e+00,  3.54400e-02,  2.95900e-02,  6.30200e-03,  2.70300e-04, -2.96800e-04, -2.48600e-05,  9.66500e-06],
                           [-5.43100e-01, -5.64700e-02,  1.97400e-03,  3.10900e-03,  1.10800e-03,  5.35800e-05, -3.37200e-05, -1.24500e-05],
                           [-2.59600e-01, -5.95400e-02, -7.67800e-03, -2.35000e-04,  4.62600e-04,  1.46600e-04,  2.88800e-05, -5.41900e-06],
                           [-1.07600e-01, -3.85200e-02, -8.26500e-03, -1.20300e-03, -5.73600e-05,  3.30700e-05,  2.59200e-05,  6.44100e-06],
                           [-3.27400e-02, -1.65000e-02, -6.00200e-03, -1.18300e-03, -1.77200e-04, -2.24300e-05,  1.13800e-07,  3.73400e-06],
                           [-1.37700e-03, -3.64100e-04, -3.08700e-03, -9.37600e-04, -1.80500e-04, -1.98200e-05, -6.16100e-06, -3.96000e-07],
                           [ 7.41500e-03,  7.99900e-03, -3.32300e-04, -5.65600e-04, -1.67100e-04, -1.81000e-05, -2.90400e-06, -6.01400e-07]])
#  gRO2(+M) <=> gQOOH[O](+M)                           1.000e+00 0.000     0.000
#      TCHEB/ 180.000   1500.000 /
#      PCHEB/ 0.010     98.692   /
#      CHEB/ 10 8/
#      CHEB/ -9.045e+00   1.033e+00    -1.597e-01   3.972e-03    8.888e-03   /
#      CHEB/ 1.690e-04    -1.034e-03   -5.010e-06   7.397e+00    6.802e-01   /
#      CHEB/ 1.807e-02    3.434e-03    3.312e-04    -1.301e-03   7.333e-05   /
#      CHEB/ 2.853e-04    -3.146e+00   -7.442e-02   3.214e-02    2.570e-02   /
#      CHEB/ -1.821e-03   -3.219e-03   9.631e-05    5.444e-04    -1.715e+00  /
#      CHEB/ -1.239e-01   -1.027e-02   5.075e-03    4.049e-04    -6.036e-04  /
#      CHEB/ 1.523e-04    8.249e-05    -8.298e-01   -2.018e-02   -8.461e-03  /
#      CHEB/ -7.355e-03   -1.728e-03   6.345e-04    4.118e-04    -9.250e-05  /
#      CHEB/ -3.670e-01   1.775e-02    2.334e-03    -4.325e-03   -1.359e-03  /
#      CHEB/ 2.154e-04    9.819e-05    -3.771e-05   -1.513e-01   7.983e-03   /
#      CHEB/ 5.470e-04    -5.507e-04   5.725e-04    6.058e-05    -1.845e-04  /
#      CHEB/ -2.782e-05   -5.920e-02   -3.524e-03   -5.061e-03   -4.740e-04  /
#      CHEB/ 8.893e-04    1.729e-04    -1.301e-04   -1.935e-05   -2.109e-02  /
#      CHEB/ -1.031e-03   -5.376e-03   -1.521e-03   8.423e-05    9.463e-05   /
#      CHEB/ -9.449e-06   8.132e-06    -2.391e-03   4.296e-03    -6.518e-04  /
#      CHEB/ -1.256e-03   -4.449e-04   -1.108e-04   1.663e-05    2.269e-05   /

# Reaction 6
chebyshev_reaction('gQOOHa (+ M) <=> gQOOH[O] (+ M)',
                   Tmin=180.0, Tmax=1500.0,
                   Pmin=(0.01, 'atm'), Pmax=(98.692, 'atm'),
                   coeffs=[[-1.08700e+01, -3.04200e-01, -1.82900e-01,  7.19300e-04,  1.14600e-02,  1.52600e-03, -1.39900e-03, -2.37400e-04],
                           [ 6.87700e+00,  1.21900e+00,  8.81300e-02,  2.05800e-02, -3.71500e-03, -1.79600e-03,  3.58300e-04,  4.11600e-04],
                           [-3.32300e+00,  9.32500e-02,  7.81600e-02,  3.69000e-02, -1.24200e-03, -3.56300e-03,  3.04000e-04,  5.85800e-04],
                           [-2.02700e+00, -7.66300e-02,  1.96300e-02,  5.40700e-03,  7.87000e-04,  2.83800e-04,  3.99500e-04, -4.05500e-05],
                           [-1.07500e+00, -6.28000e-02,  1.44300e-02, -4.53500e-03, -1.42900e-03,  1.15500e-03,  3.79800e-04, -1.13900e-04],
                           [-5.20300e-01, -7.79500e-02,  4.74800e-03,  1.55000e-03, -1.13300e-04,  4.23500e-04,  6.60000e-05,  1.19700e-05],
                           [-2.26900e-01, -8.40100e-02, -1.89700e-02,  2.44000e-03,  1.92800e-03,  3.52200e-04, -8.21300e-06,  3.29600e-05],
                           [-7.90400e-02, -5.97700e-02, -3.26700e-02, -3.32500e-03,  1.72400e-03,  6.06300e-04,  9.29500e-05,  2.52000e-05],
                           [-9.61100e-03, -1.47000e-02, -2.80900e-02, -8.65100e-03,  1.67000e-05,  6.03000e-04,  1.68300e-04,  1.98300e-05],
                           [ 1.85100e-02,  2.08700e-02, -1.19800e-02, -8.91300e-03, -1.57500e-03,  2.31300e-04,  1.46100e-04,  1.41600e-05]])

# Reaction 7
chebyshev_reaction('gQOOHg (+ M) <=> gQOOH[O] (+ M)',
                   Tmin=180.0, Tmax=1500.0,
                   Pmin=(0.01, 'atm'), Pmax=(98.692, 'atm'),
                   coeffs=[[-6.56500e+00,  1.22700e-02, -2.36700e-01,  1.07700e-02,  1.13300e-02,  2.07500e-03, -1.48900e-03, -3.56900e-04],
                           [ 1.26700e+00,  1.29400e+00,  1.08300e-01,  3.03600e-02, -2.99200e-03, -3.11500e-03,  6.07600e-04,  5.31200e-04],
                           [-3.81200e+00, -7.48600e-02,  1.10100e-01,  3.76100e-02,  4.07400e-05, -3.18000e-03,  2.52200e-04,  5.86500e-04],
                           [-2.23300e+00, -2.77700e-01,  1.90700e-02,  9.67300e-03,  1.66500e-04,  1.18100e-03,  4.44200e-04, -1.75500e-04],
                           [-1.08400e+00, -1.92400e-01, -2.51600e-02,  8.68300e-04, -2.39700e-04,  1.23100e-03,  4.33800e-04, -1.59500e-04],
                           [-4.42800e-01, -9.77500e-02, -4.67200e-02, -3.07900e-03,  2.63200e-03,  6.55600e-04,  9.01500e-05,  4.94600e-05],
                           [-1.40100e-01, -1.95900e-02, -4.72400e-02, -1.24000e-02,  2.46400e-03,  1.32400e-03,  1.06700e-04,  5.78300e-05],
                           [-2.00200e-02,  2.92900e-02, -2.41700e-02, -1.74900e-02, -1.84000e-03,  1.45900e-03,  4.46600e-04,  4.00500e-05],
                           [ 1.22200e-02,  4.96100e-02,  4.46700e-03, -1.20500e-02, -5.59000e-03,  1.43400e-04,  6.28700e-04,  1.08700e-04],
                           [ 1.22000e-02,  4.08600e-02,  2.07700e-02, -1.62300e-04, -5.16700e-03, -1.65100e-03,  2.51000e-04,  1.90500e-04]])

# Reaction 8
chebyshev_reaction('gQOOHb (+ M) <=> gQOOH[O] (+ M)',
                   Tmin=180.0, Tmax=1500.0,
                   Pmin=(0.01, 'atm'), Pmax=(98.692, 'atm'),
                   coeffs=[[-9.50000e+00,  2.65100e-02, -1.94500e-01, -9.79400e-03,  1.05700e-02,  2.33900e-03, -1.31400e-03, -2.43700e-04],
                           [ 2.24000e+00,  1.36300e+00,  1.34600e-01,  1.90200e-03, -2.62400e-03, -2.78600e-03,  5.34700e-04,  5.03200e-04],
                           [-4.20200e+00, -1.14700e-01,  6.69500e-02,  4.28200e-02, -8.69900e-04, -4.96800e-03,  4.10400e-05,  8.16500e-04],
                           [-2.29800e+00, -2.90700e-01, -3.66600e-02,  8.41100e-03,  1.91300e-03, -7.25500e-04,  4.08400e-04,  6.50900e-05],
                           [-9.76200e-01, -1.10300e-01, -4.23100e-02, -1.04600e-02, -1.50800e-03,  9.14500e-04,  5.07500e-04, -1.62400e-04],
                           [-3.16400e-01,  2.48600e-02, -1.72800e-02, -8.38800e-03, -1.71700e-03,  3.91100e-04,  8.08900e-05, -5.71500e-05],
                           [-8.37500e-02,  6.61100e-02,  1.29900e-03, -3.35100e-03, -4.47800e-04, -6.47900e-05, -1.06200e-04,  1.14000e-05],
                           [-3.64400e-02,  4.45800e-02,  9.13500e-03,  4.05800e-04, -6.59300e-05, -1.48700e-04, -7.45400e-05,  1.74900e-05],
                           [-3.57800e-02,  7.88400e-03,  7.20800e-03,  2.12300e-03,  1.67600e-04, -9.01800e-05, -2.53800e-05,  2.59400e-06],
                           [-2.37700e-02, -1.61300e-02,  2.75300e-04,  1.82600e-03,  5.47600e-04, -2.64600e-05, -2.11800e-05, -4.24200e-06]])

# Reaction 9
chebyshev_reaction('O2 + gR (+ M) <=> gQOOH[O] (+ M)',
                   Tmin=180.0, Tmax=1500.0,
                   Pmin=(0.01, 'atm'), Pmax=(98.692, 'atm'),
                   coeffs=[[ 3.74000e+00,  8.26000e-01, -2.96300e-01, -5.27400e-02,  1.80700e-02,  8.82400e-03, -3.05400e-03, -1.55300e-03],
                           [-3.58600e+00,  7.05200e-01,  1.76600e-01,  6.97800e-02, -1.32100e-02, -1.25500e-02,  2.33400e-03,  2.41200e-03],
                           [-2.40900e+00,  5.19000e-02,  2.78500e-02,  1.28200e-02,  1.07500e-03, -3.24300e-04,  2.07900e-04, -9.96000e-05],
                           [-1.28600e+00,  1.14600e-02, -4.10700e-03, -8.52000e-03, -1.57400e-03,  8.13400e-04,  1.92700e-04, -1.41800e-04],
                           [-6.19100e-01,  5.71600e-02,  1.14500e-02, -6.83000e-03, -2.39500e-03,  2.02400e-04,  2.33600e-04, -3.45500e-05],
                           [-2.77400e-01,  3.86200e-02,  1.42500e-02, -8.16400e-04, -3.07600e-04,  1.12000e-04, -1.83700e-05, -3.38500e-05],
                           [-1.21600e-01,  8.87700e-03,  3.50300e-03,  8.72400e-04,  7.17900e-04,  3.17100e-04, -4.61100e-05, -5.56400e-05],
                           [-4.88800e-02, -1.11100e-02, -5.37500e-03, -5.63500e-04,  8.24500e-04,  2.76000e-04, -7.24900e-05, -1.85900e-05],
                           [-1.81500e-02, -6.85800e-03, -5.93100e-03, -2.29900e-03, -1.78800e-04,  1.74500e-04,  4.62500e-05, -1.02900e-05],
                           [-1.96300e-04,  1.87100e-03, -3.76800e-03, -1.33600e-03, -3.97600e-04, -1.21600e-04, -3.50300e-05,  2.85000e-05]])
#  gRO2(+M) <=> gQOOHa(+M)                             1.000e+00 0.000     0.000
#      TCHEB/ 180.000   1500.000 /
#      PCHEB/ 0.010     98.692   /
#      CHEB/ 10 8/
#      CHEB/ -2.096e+00   3.748e-01    4.642e-03    6.168e-03    -1.516e-05  /
#      CHEB/ 1.623e-04    -1.009e-05   -2.295e-05   5.891e+00    6.334e-01   /
#      CHEB/ 2.032e-02    1.041e-02    4.412e-04    2.481e-04    -1.358e-05  /
#      CHEB/ -3.920e-05   -1.941e+00   3.522e-01    4.005e-02    7.064e-03   /
#      CHEB/ 1.254e-03    1.411e-04    -5.166e-06   -2.048e-05   -1.559e+00  /
#      CHEB/ 5.461e-02    4.403e-02    5.899e-03    1.554e-03    1.522e-04   /
#      CHEB/ 3.612e-06    3.594e-06    -9.788e-01   -1.371e-01   2.330e-02   /
#      CHEB/ 6.550e-03    1.393e-03    2.359e-04    3.468e-05    2.487e-05   /
#      CHEB/ -4.964e-01   -1.905e-01   -8.833e-03   5.581e-03    1.296e-03   /
#      CHEB/ 2.930e-04    8.970e-05    4.062e-05    -2.262e-01   -1.478e-01  /
#      CHEB/ -3.234e-02   1.245e-03    1.274e-03    3.408e-04    1.383e-04   /
#      CHEB/ 4.917e-05    -4.025e-02   -7.209e-02   -3.717e-02   -4.502e-03  /
#      CHEB/ 8.475e-04    4.191e-04    1.591e-04    4.452e-05    -2.822e-03  /
#      CHEB/ -7.661e-03   -2.651e-02   -8.274e-03   -1.763e-04   4.480e-04   /
#      CHEB/ 1.562e-04    2.422e-05    3.624e-02    2.883e-02    -9.784e-03  /
#      CHEB/ -8.249e-03   -1.366e-03   2.882e-04    1.298e-04    -1.494e-06  /
#  gQOOH[O](+M) <=> gQOOHa(+M)                         1.000e+00 0.000     0.000
#      TCHEB/ 180.000   1500.000 /
#      PCHEB/ 0.010     98.692   /
#      CHEB/ 10 8/
#      CHEB/ 1.386e+00    -3.042e-01   -1.829e-01   7.193e-04    1.146e-02   /
#      CHEB/ 1.526e-03    -1.399e-03   -2.374e-04   -2.129e+00   1.219e+00   /
#      CHEB/ 8.813e-02    2.058e-02    -3.715e-03   -1.796e-03   3.583e-04   /
#      CHEB/ 4.116e-04    -3.334e+00   9.325e-02    7.816e-02    3.690e-02   /
#      CHEB/ -1.242e-03   -3.563e-03   3.040e-04    5.858e-04    -2.078e+00  /
#      CHEB/ -7.663e-02   1.963e-02    5.407e-03    7.870e-04    2.838e-04   /
#      CHEB/ 3.995e-04    -4.055e-05   -1.100e+00   -6.280e-02   1.443e-02   /
#      CHEB/ -4.535e-03   -1.429e-03   1.155e-03    3.798e-04    -1.139e-04  /
#      CHEB/ -5.296e-01   -7.795e-02   4.748e-03    1.550e-03    -1.133e-04  /
#      CHEB/ 4.235e-04    6.600e-05    1.197e-05    -2.302e-01   -8.401e-02  /
#      CHEB/ -1.897e-02   2.440e-03    1.928e-03    3.522e-04    -8.213e-06  /
#      CHEB/ 3.296e-05    -8.033e-02   -5.977e-02   -3.267e-02   -3.325e-03  /
#      CHEB/ 1.724e-03    6.063e-04    9.295e-05    2.520e-05    -1.008e-02  /
#      CHEB/ -1.470e-02   -2.809e-02   -8.651e-03   1.670e-05    6.030e-04   /