units(length='cm', time='s', quantity='mol', act_energy='kcal/mol')

ideal_gas(name='gas',
          elements="H D T C Ci O Oi N Ne Ar He Si S F Cl Br I X",
          species="""OH             bQOOH[O]       acetone
                     H2O            balkoxyketone  ibutenol
                     trisub_epoxy   bQOOHg         CH2O
                     galkene        O2             bR
                     bQOOHa         bRO2           disub_epoxy
                     HO2""",
          reactions='all',
          initial_state=state(temperature=300.0, pressure=OneAtm))

#-------------------------------------------------------------------------------
# Element data
#-------------------------------------------------------------------------------

element(symbol='Ci', atomic_mass=13.003)
element(symbol='D', atomic_mass=2.014)
element(symbol='Oi', atomic_mass=18.0)
element(symbol='T', atomic_mass=3.016)
element(symbol='X', atomic_mass=195.083)
#-------------------------------------------------------------------------------
# Species data
#-------------------------------------------------------------------------------

species(name='OH',
        atoms='H:1 O:1',
        thermo=(NASA([10.00, 984.14],
                     [ 3.49686242E+00,  1.83973160E-04, -9.97634499E-07,
                       1.56942783E-09, -6.10128175E-13,  3.41673934E+03,
                       1.48093120E+00]),
                NASA([984.14, 3000.00],
                     [ 3.45221464E+00, -2.95124034E-04,  7.39418622E-07,
                      -2.89309866E-10,  3.53041498E-14,  3.45751599E+03,
                       1.85813897E+00])))

species(name='bQOOH[O]',
        atoms='C:4 H:9 O:3',
        thermo=(NASA([10.00, 338.69],
                     [ 3.60915854E+00,  3.39069566E-02,  2.22227265E-04,
                      -8.23527342E-07,  8.56246333E-10, -2.31947425E+04,
                       1.23284605E+01]),
                NASA([338.69, 3000.00],
                     [ 5.03198881E+00,  5.46235886E-02, -3.56935806E-05,
                       1.12371751E-08, -1.35390171E-12, -2.35063252E+04,
                       3.82760723E+00])))

species(name='acetone',
        atoms='C:3 H:6 O:1',
        thermo=(NASA([10.00, 414.35],
                     [ 3.73496166E+00,  3.05743218E-02, -1.26253585E-04,
                       3.66080978E-07, -3.31430437E-10, -2.91482122E+04,
                       8.24936012E+00]),
                NASA([414.35, 3000.00],
                     [ 1.70010292E-01,  3.28431468E-02, -1.80960132E-05,
                       4.82960690E-09, -5.02388538E-13, -2.85768292E+04,
                       2.56372653E+01])))

species(name='H2O',
        atoms='H:2 O:1',
        thermo=(NASA([10.00, 773.84],
                     [ 4.00473541E+00, -2.39729134E-04,  8.11862955E-07,
                       1.47891862E-09, -1.19783539E-12, -3.03533807E+04,
                      -9.96254147E-02]),
                NASA([773.84, 3000.00],
                     [ 3.52133374E+00,  1.05377009E-03,  6.40722099E-07,
                      -3.86240235E-10,  5.49243294E-14, -3.02424794E+04,
                       2.34173094E+00])))

species(name='balkoxyketone',
        atoms='C:4 H:7 O:2',
        thermo=(NASA([10.00, 269.93],
                     [ 3.81931151E+00,  1.68519318E-02,  2.42742224E-04,
                      -9.64821161E-07,  1.18509335E-09, -1.94996340E+04,
                       1.20521854E+01]),
                NASA([269.93, 3000.00],
                     [ 3.57555944E+00,  4.28868089E-02, -2.65390705E-05,
                       7.99659117E-09, -9.32983470E-13, -1.95681621E+04,
                       1.13957990E+01])))

species(name='ibutenol',
        atoms='C:4 H:8 O:1',
        thermo=(NASA([10.00, 135.97],
                     [ 3.95714996E+00,  5.72646980E-03,  4.63611760E-04,
                      -3.04137514E-06,  6.85019471E-09, -2.52409910E+04,
                       8.21931848E+00]),
                NASA([135.97, 3000.00],
                     [ 3.32467612E+00,  3.69033556E-02, -1.89960416E-05,
                       4.73417677E-09, -4.59705291E-13, -2.52354124E+04,
                       9.58133237E+00])))

species(name='trisub_epoxy',
        atoms='C:4 H:8 O:2',
        thermo=(NASA([10.00, 209.19],
                     [ 3.75295042E+00,  2.37546930E-02,  1.26610110E-04,
                      -4.78364365E-07,  5.79468168E-10, -3.82719946E+04,
                       1.12739684E+01]),
                NASA([209.19, 3000.00],
                     [ 2.64185254E+00,  4.50006531E-02, -2.57361066E-05,
                       7.15266054E-09, -7.72980731E-13, -3.82255090E+04,
                       1.48960343E+01])))

species(name='bQOOHg',
        atoms='C:4 H:9 O:3',
        thermo=(NASA([10.00, 441.09],
                     [ 3.56595280E+00,  3.36073467E-02,  2.03462772E-04,
                      -5.98977617E-07,  4.83271168E-10, -2.35142535E+04,
                       1.33537891E+01]),
                NASA([441.09, 3000.00],
                     [ 6.09031192E+00,  5.80517622E-02, -4.06392697E-05,
                       1.32574026E-08, -1.62501077E-12, -2.41974389E+04,
                      -1.97849715E+00])))

species(name='CH2O',
        atoms='C:1 H:2 O:1',
        thermo=(NASA([10.00, 601.31],
                     [ 4.03190845E+00, -1.93233367E-03,  8.89743345E-06,
                       2.98105926E-09, -7.90813886E-12, -1.42276270E+04,
                       3.47574660E+00]),
                NASA([601.31, 3000.00],
                     [ 1.40134195E+00,  9.48858016E-03, -4.43088317E-06,
                       9.48452194E-10, -7.43790219E-14, -1.38013869E+04,
                       1.57423780E+01])))

species(name='galkene',
        atoms='C:4 H:8 O:1',
        thermo=(NASA([10.00, 383.47],
                     [ 3.84035604E+00,  1.20378740E-02,  1.87486319E-04,
                      -5.44759148E-07,  4.80711015E-10, -2.07391226E+04,
                       1.02570291E+01]),
                NASA([383.47, 3000.00],
                     [ 4.00413385E+00,  3.79025144E-02, -2.15435710E-05,
                       6.15213311E-09, -6.97446345E-13, -2.09544119E+04,
                       6.98052628E+00])))

species(name='O2',
        atoms='O:2',
        thermo=(NASA([10.00, 605.96],
                     [ 3.50743498E+00, -4.43860349E-04,  1.45938058E-06,
                       1.61509333E-09, -2.32050052E-12, -9.24756224E+02,
                       4.72183634E+00]),
                NASA([605.96, 3000.00],
                     [ 2.87462882E+00,  2.17840991E-03, -1.18262921E-06,
                       2.86910493E-10, -2.53297146E-14, -8.19517838E+02,
                       7.69331810E+00])))

species(name='bR',
        atoms='C:4 H:9 O:1',
        thermo=(NASA([10.00, 483.43],
                     [ 3.38164846E+00,  5.97142637E-02, -1.58320095E-04,
                       3.04908893E-07, -2.13091806E-10, -1.25815280E+04,
                       1.09226843E+01]),
                NASA([483.43, 3000.00],
                     [ 2.33428824E+00,  4.22094427E-02, -2.28029290E-05,
                       6.04614564E-09, -6.30240159E-13, -1.21744460E+04,
                       1.83772893E+01])))

species(name='bQOOHa',
        atoms='C:4 H:9 O:3',
        thermo=(NASA([10.00, 390.53],
                     [ 3.54969236E+00,  3.76592474E-02,  1.76622653E-04,
                      -5.98063750E-07,  5.45069236E-10, -2.76830341E+04,
                       1.31518761E+01]),
                NASA([390.53, 3000.00],
                     [ 5.33564209E+00,  5.64935715E-02, -3.83214298E-05,
                       1.22990604E-08, -1.49549987E-12, -2.81056441E+04,
                       2.59015836E+00])))

species(name='bRO2',
        atoms='C:4 H:9 O:3',
        thermo=(NASA([10.00, 461.39],
                     [ 3.53964713E+00,  3.88723795E-02,  9.57420148E-05,
                      -2.80380499E-07,  2.09647462E-10, -3.15849171E+04,
                       1.18803618E+01]),
                NASA([461.39, 3000.00],
                     [ 3.47201723E+00,  6.00510247E-02, -4.00567321E-05,
                       1.25663813E-08, -1.49496682E-12, -3.17978638E+04,
                       9.77903975E+00])))

species(name='disub_epoxy',
        atoms='C:4 H:8 O:2',
        thermo=(NASA([10.00, 549.41],
                     [ 3.89863211E+00,  5.97532637E-03,  1.66685676E-04,
                      -3.10743768E-07,  1.78330192E-10, -3.68863067E+04,
                       1.13847308E+01]),
                NASA([549.41, 3000.00],
                     [-6.40277648E-01,  6.05960003E-02, -4.13427220E-05,
                       1.31555461E-08, -1.57685017E-12, -3.67131899E+04,
                       2.76005436E+01])))

species(name='HO2',
        atoms='H:1 O:2',
        thermo=(NASA([10.00, 891.11],
                     [ 4.02887004E+00, -1.75769289E-03,  1.08726004E-05,
                      -1.13812972E-08,  3.90113097E-12,  4.95165001E+02,
                       4.69302008E+00]),
                NASA([891.11, 3000.00],
                     [ 3.06571044E+00,  4.28505005E-03, -2.19325920E-06,
                       5.58882699E-10, -5.61246669E-14,  5.98557610E+02,
                       8.84564156E+00])))

#-------------------------------------------------------------------------------
# Reaction data
#-------------------------------------------------------------------------------

# Reaction 1
chebyshev_reaction('bQOOHg (+ M) <=> bRO2 (+ M)',
                   Tmin=180.0, Tmax=1500.0,
                   Pmin=(0.01, 'atm'), Pmax=(98.692, 'atm'),
                   coeffs=[[ 2.57600e+00,  8.36500e-01,  1.61200e-02, -9.69800e-04, -3.44200e-03, -5.64300e-04,  2.11900e-04,  1.33200e-04],
                           [-2.72000e+00,  1.12800e+00,  8.48800e-02, -6.79200e-03, -3.68400e-03, -8.59400e-04,  2.49000e-04,  1.70000e-04],
                           [-2.94800e+00,  3.30200e-01,  4.18700e-02,  1.12400e-02,  8.52200e-04, -5.95100e-04,  4.21900e-06,  3.23900e-05],
                           [-1.65700e+00, -7.36800e-02, -4.51100e-02,  9.98300e-03,  6.51700e-03,  5.20000e-04, -2.61000e-04, -9.18400e-05],
                           [-8.83100e-01, -1.17700e-01, -6.67300e-02, -4.66700e-03,  4.25200e-03,  1.52700e-03,  3.17800e-05, -1.21700e-04],
                           [-4.12300e-01, -5.63700e-02, -3.12500e-02, -7.57400e-03, -1.03100e-03,  3.82900e-04,  2.59000e-04,  4.18600e-05],
                           [-1.99000e-01, -1.90400e-02, -8.24800e-04,  4.71200e-04, -1.66600e-03, -9.33500e-04, -1.22400e-04,  9.29100e-05],
                           [-8.51600e-02, -1.70700e-02,  3.69000e-03,  4.66900e-03,  8.47200e-04, -4.88600e-04, -3.95200e-04, -6.30800e-05],
                           [-4.89800e-02, -2.04900e-02, -4.77500e-03,  1.84300e-03,  1.63900e-03,  5.66800e-04, -9.89000e-05, -1.26800e-04],
                           [-2.11600e-03, -1.60900e-02, -8.17000e-03, -2.87800e-03,  2.61800e-04,  6.91900e-04,  2.44400e-04, -3.94700e-06]])

# Reaction 2
chebyshev_reaction('bQOOHa (+ M) <=> bRO2 (+ M)',
                   Tmin=180.0, Tmax=1500.0,
                   Pmin=(0.01, 'atm'), Pmax=(98.692, 'atm'),
                   coeffs=[[-1.43900e+00,  6.25800e-01, -3.19800e-02, -7.82600e-04,  2.00400e-03, -7.52900e-05, -6.85800e-05,  8.86400e-06],
                           [ 4.21900e+00,  1.04200e+00, -2.92900e-02, -2.17500e-03,  2.92400e-03, -1.85600e-05, -8.91300e-05,  4.99100e-06],
                           [-1.85800e+00,  5.57300e-01,  3.63500e-02, -2.74400e-04,  3.83800e-04,  1.96600e-04,  1.45100e-05, -1.51500e-05],
                           [-1.44500e+00,  8.97800e-02,  6.62200e-02,  6.90400e-03, -1.39600e-03,  1.25000e-04,  9.28600e-05, -1.58600e-05],
                           [-1.02200e+00, -1.64000e-01,  4.03100e-02,  1.31400e-02, -5.64200e-04, -1.94800e-04,  6.43400e-05,  4.06000e-06],
                           [-6.07000e-01, -2.03300e-01, -6.71900e-03,  1.08700e-02,  1.83600e-03, -2.31000e-04, -5.84000e-05,  1.42300e-05],
                           [-2.60000e-01, -1.36900e-01, -3.45600e-02,  1.47500e-03,  2.88500e-03,  2.30900e-04, -1.24000e-04, -7.00000e-06],
                           [-1.20700e-01, -6.06300e-02, -3.33500e-02, -6.88000e-03,  1.33800e-03,  6.67600e-04, -1.87700e-05, -3.09400e-05],
                           [ 2.85000e-03, -1.09300e-02, -1.74800e-02, -8.73500e-03, -1.19300e-03,  5.09300e-04,  1.55500e-04, -1.19200e-05],
                           [-5.58300e-04,  1.35700e-02, -2.73000e-03, -5.28500e-03, -2.47500e-03, -1.16600e-04,  1.96200e-04,  4.19000e-05]])

# Reaction 3
chebyshev_reaction('bQOOH[O] (+ M) <=> bRO2 (+ M)',
                   Tmin=180.0, Tmax=1500.0,
                   Pmin=(0.01, 'atm'), Pmax=(98.692, 'atm'),
                   coeffs=[[ 4.94200e+00,  1.81600e+00, -1.06400e-01, -2.80800e-02, -2.25800e-03,  2.18400e-03,  9.93800e-04, -3.73700e-05],
                           [-5.49200e+00,  3.35300e-01,  1.10400e-01,  2.70400e-02, -2.22100e-04, -2.65000e-03, -9.83700e-04,  1.53400e-04],
                           [-3.00500e+00, -1.42600e-01, -8.62800e-02, -1.40600e-02,  4.95200e-03,  4.49300e-03,  1.07300e-03, -3.43200e-04],
                           [-1.50500e+00,  1.85400e-02, -1.77900e-02, -1.27000e-02, -5.73400e-03, -9.41400e-04,  4.49000e-04,  3.78000e-04],
                           [-7.74300e-01,  8.79600e-03,  3.07900e-03,  3.44900e-03,  1.88000e-03,  1.44200e-04, -4.86000e-04, -3.10400e-04],
                           [-3.56600e-01, -5.40400e-02, -1.75000e-02, -2.66300e-03,  1.99100e-03,  1.76900e-03,  6.42900e-04, -1.97800e-05],
                           [-2.50100e-01, -1.71400e-02, -3.58100e-03, -4.21500e-03, -1.81600e-03, -3.01200e-04,  1.79500e-04,  1.74400e-04],
                           [-1.34700e-01, -3.20300e-02, -2.91500e-03,  9.70400e-04,  4.68300e-04, -1.98300e-04, -2.86600e-04, -1.43100e-04],
                           [-4.70000e-02, -1.72300e-02, -5.64500e-03, -2.41100e-03, -2.75300e-04,  4.91500e-04,  3.56000e-04,  7.14300e-05],
                           [ 1.19600e-02, -1.18800e-02, -2.64300e-03,  2.08600e-04, -2.89700e-04, -3.43200e-04, -1.16500e-04,  3.26700e-05]])

# Reaction 4
chebyshev_reaction('O2 + bR (+ M) <=> bRO2 (+ M)',
                   Tmin=180.0, Tmax=1500.0,
                   Pmin=(0.01, 'atm'), Pmax=(98.692, 'atm'),
                   coeffs=[[ 1.25400e+01,  6.22900e-01, -6.73800e-02,  1.03200e-02, -2.51500e-03,  5.03500e-04, -7.86800e-05,  8.79700e-06],
                           [-2.18500e+00,  9.67000e-01, -5.16000e-02, -5.65900e-05, -6.75500e-05, -5.59500e-05,  3.12400e-05, -1.37300e-05],
                           [-1.52800e+00,  5.01000e-01,  3.25600e-02, -6.79400e-03, -1.03200e-04,  8.68000e-06,  4.42300e-05, -2.03000e-05],
                           [-1.02500e+00,  1.59200e-01,  4.75900e-02,  4.18200e-04, -6.57700e-04, -1.98100e-04,  7.36100e-05, -6.15600e-06],
                           [-6.34200e-01, -5.28100e-03,  2.63000e-02,  4.57700e-03,  4.39200e-04, -3.00100e-04, -4.31500e-06,  1.21000e-05],
                           [-3.66600e-01, -5.80000e-02,  5.87000e-03,  3.01400e-03,  1.14500e-03, -3.07400e-05, -5.70000e-05,  6.24900e-07],
                           [-1.93700e-01, -6.12600e-02, -3.92900e-03,  3.95600e-04,  7.93500e-04,  1.73900e-04, -1.55000e-05, -9.92900e-06],
                           [-8.73500e-02, -4.66800e-02, -7.05700e-03, -7.89100e-04,  1.73500e-04,  1.41600e-04,  2.54800e-05, -1.58700e-06],
                           [-2.62500e-02, -2.79200e-02, -7.19400e-03, -1.02300e-03, -1.32600e-04,  2.80100e-05,  2.06100e-05,  6.55800e-06],
                           [ 4.72300e-03, -1.07100e-02, -5.91900e-03, -1.01300e-03, -2.05600e-04, -2.78300e-05,  9.12600e-07,  4.38600e-06]])
#  bRO2(+M) <=> bQOOHg(+M)                             1.000e+00 0.000     0.000
#      TCHEB/ 180.000   1500.000 /
#      PCHEB/ 0.010     98.692   /
#      CHEB/ 10 8/
#      CHEB/ -7.376e+00   8.365e-01    1.612e-02    -9.698e-04   -3.442e-03  /
#      CHEB/ -5.643e-04   2.119e-04    1.332e-04    6.241e+00    1.128e+00   /
#      CHEB/ 8.488e-02    -6.792e-03   -3.684e-03   -8.594e-04   2.490e-04   /
#      CHEB/ 1.700e-04    -2.802e+00   3.302e-01    4.187e-02    1.124e-02   /
#      CHEB/ 8.522e-04    -5.951e-04   4.219e-06    3.239e-05    -1.620e+00  /
#      CHEB/ -7.368e-02   -4.511e-02   9.983e-03    6.517e-03    5.200e-04   /
#      CHEB/ -2.610e-04   -9.184e-05   -8.773e-01   -1.177e-01   -6.673e-02  /
#      CHEB/ -4.667e-03   4.252e-03    1.527e-03    3.178e-05    -1.217e-04  /
#      CHEB/ -4.124e-01   -5.637e-02   -3.125e-02   -7.574e-03   -1.031e-03  /
#      CHEB/ 3.829e-04    2.590e-04    4.186e-05    -1.996e-01   -1.904e-02  /
#      CHEB/ -8.248e-04   4.712e-04    -1.666e-03   -9.335e-04   -1.224e-04  /
#      CHEB/ 9.291e-05    -8.561e-02   -1.707e-02   3.690e-03    4.669e-03   /
#      CHEB/ 8.472e-04    -4.886e-04   -3.952e-04   -6.308e-05   -4.930e-02  /
#      CHEB/ -2.049e-02   -4.775e-03   1.843e-03    1.639e-03    5.668e-04   /
#      CHEB/ -9.890e-05   -1.268e-04   -2.302e-03   -1.609e-02   -8.170e-03  /
#      CHEB/ -2.878e-03   2.618e-04    6.919e-04    2.444e-04    -3.947e-06  /

# Reaction 5
chebyshev_reaction('bQOOHa (+ M) <=> bQOOHg (+ M)',
                   Tmin=180.0, Tmax=1500.0,
                   Pmin=(0.01, 'atm'), Pmax=(98.692, 'atm'),
                   coeffs=[[-1.04700e+01,  1.60000e-02, -1.15000e-02, -2.37500e-02, -8.11300e-03, -1.33500e-04,  1.06500e-03,  3.05500e-04],
                           [ 4.87000e+00,  2.34100e+00,  1.43200e-01, -1.44300e-02, -1.08900e-02, -2.22700e-03,  9.18900e-04,  4.48800e-04],
                           [-2.45800e+00,  3.71800e-01,  4.31800e-02,  5.76000e-02,  1.07200e-02, -3.61000e-03, -1.81300e-03, -1.79700e-07],
                           [-1.86700e+00, -2.69200e-01, -7.79800e-02,  2.49200e-02,  1.82300e-02,  3.21300e-03, -1.30500e-03, -7.14500e-04],
                           [-1.04000e+00, -1.90700e-01, -6.11200e-02, -1.73100e-02,  9.40300e-04,  4.70900e-03,  1.42700e-03, -2.43000e-04],
                           [-4.73600e-01, -7.37000e-02, -1.28500e-02, -1.15000e-02, -8.55500e-03, -5.48900e-04,  1.33600e-03,  5.11900e-04],
                           [-1.86800e-01, -4.60400e-02,  2.20800e-03,  4.95000e-03, -3.33400e-03, -2.94900e-03, -3.95400e-04,  3.61500e-04],
                           [-7.03600e-02, -3.17300e-02, -6.72600e-03,  7.09700e-03,  2.55100e-03, -1.11700e-03, -9.21000e-04, -9.29800e-05],
                           [-6.61300e-03, -2.27400e-02, -9.87600e-03, -6.02700e-04,  2.78700e-03,  8.84900e-04, -3.16700e-04, -2.05700e-04],
                           [ 3.70500e-03, -2.00400e-03, -1.02500e-02, -4.82100e-03,  1.13400e-04,  1.00600e-03,  2.31800e-04, -6.25100e-05]])

# Reaction 6
chebyshev_reaction('bQOOH[O] (+ M) <=> bQOOHg (+ M)',
                   Tmin=180.0, Tmax=1500.0,
                   Pmin=(0.01, 'atm'), Pmax=(98.692, 'atm'),
                   coeffs=[[-4.99000e+00,  1.37700e+00, -1.61500e-02, -8.82200e-02, -1.61500e-02,  6.72500e-03,  1.30000e-03, -1.64100e-04],
                           [-4.12500e+00,  1.01400e+00,  2.52100e-01,  1.16300e-01, -9.62500e-03, -1.88500e-02, -9.53300e-04,  1.68700e-03],
                           [-3.51400e+00, -9.22700e-02, -1.70100e-01, -5.93700e-03,  3.04900e-02,  1.14300e-02, -1.45600e-03, -1.92600e-03],
                           [-1.87300e+00, -1.19300e-01, -1.24800e-01, -3.30700e-02, -5.77000e-04,  5.07000e-03,  2.53100e-03,  3.97900e-04],
                           [-8.62300e-01, -4.52200e-02, -4.42900e-02, -1.29900e-02, -5.47300e-03, -1.40900e-04,  6.72200e-04,  3.07000e-04],
                           [-3.05900e-01, -2.07800e-02, -1.31000e-02, -2.73800e-03, -2.99500e-03, -1.52100e-03, -1.92500e-04,  1.76200e-04],
                           [-1.89500e-01,  2.54000e-02,  2.01000e-02,  6.08300e-03, -1.48300e-03, -2.08400e-03, -9.67500e-04, -1.72100e-04],
                           [-1.00900e-01, -1.59100e-02,  8.98300e-03,  1.07700e-02,  4.75400e-03,  1.21600e-05, -8.48600e-04, -4.04400e-04],
                           [-3.73900e-02, -3.01100e-02, -4.92100e-03, -2.29600e-04,  2.19700e-03,  2.29300e-03,  6.63100e-04, -1.07700e-04],
                           [ 8.25100e-03, -2.79900e-02, -1.11100e-02, -2.73300e-03,  4.04000e-04,  3.92900e-04,  3.82700e-04,  2.33200e-04]])

# Reaction 7
chebyshev_reaction('O2 + bR (+ M) <=> bQOOHg (+ M)',
                   Tmin=180.0, Tmax=1500.0,
                   Pmin=(0.01, 'atm'), Pmax=(98.692, 'atm'),
                   coeffs=[[ 4.69000e+00,  1.27000e+00,  1.07000e-01, -1.36600e-01, -7.04900e-02,  7.71700e-03,  1.76500e-02,  3.87900e-03],
                           [-2.84900e+00,  9.00800e-01,  1.03600e-01,  1.61800e-01,  3.57200e-02, -2.43000e-02, -1.97200e-02, -9.26400e-04],
                           [-2.05700e+00,  1.62100e-01, -8.00400e-02,  3.67500e-02,  3.67000e-02,  9.18100e-03, -3.04000e-03, -4.08400e-03],
                           [-1.22800e+00, -2.09800e-02, -9.53300e-02, -2.81900e-02,  8.28300e-03,  1.03200e-02,  4.14700e-03, -5.63100e-04],
                           [-6.04700e-01,  4.64200e-03, -2.99300e-02, -3.03300e-02, -1.03700e-02,  9.63700e-04,  3.18600e-03,  1.50100e-03],
                           [-2.51200e-01,  3.05300e-02,  2.45800e-02, -8.26700e-03, -1.08200e-02, -4.26500e-03,  2.30900e-04,  1.10500e-03],
                           [-9.29200e-02,  1.11400e-02,  3.69300e-02,  8.94400e-03, -2.82400e-03, -3.63300e-03, -1.33700e-03,  4.71400e-05],
                           [-3.14000e-02, -2.31400e-02,  2.26100e-02,  1.26400e-02,  2.99300e-03, -1.10900e-03, -1.21000e-03, -3.65600e-04],
                           [-7.79500e-03, -4.04600e-02,  9.19000e-04,  6.24100e-03,  4.22300e-03,  1.07300e-03, -3.69000e-04, -4.12400e-04],
                           [-2.91600e-04, -3.35100e-02, -9.99500e-03, -8.57100e-04,  2.01300e-03,  1.22500e-03,  2.59200e-04, -1.01800e-04]])
#  bRO2(+M) <=> bQOOHa(+M)                             1.000e+00 0.000     0.000
#      TCHEB/ 180.000   1500.000 /
#      PCHEB/ 0.010     98.692   /
#      CHEB/ 10 8/
#      CHEB/ -5.863e+00   6.258e-01    -3.198e-02   -7.826e-04   2.004e-03   /
#      CHEB/ -7.529e-05   -6.858e-05   8.864e-06    8.607e+00    1.042e+00   /
#      CHEB/ -2.929e-02   -2.175e-03   2.924e-03    -1.856e-05   -8.913e-05  /
#      CHEB/ 4.991e-06    -1.803e+00   5.573e-01    3.635e-02    -2.744e-04  /
#      CHEB/ 3.838e-04    1.966e-04    1.451e-05    -1.515e-05   -1.444e+00  /
#      CHEB/ 8.978e-02    6.622e-02    6.904e-03    -1.396e-03   1.250e-04   /
#      CHEB/ 9.286e-05    -1.586e-05   -1.027e+00   -1.640e-01   4.031e-02   /
#      CHEB/ 1.314e-02    -5.642e-04   -1.948e-04   6.434e-05    4.060e-06   /
#      CHEB/ -6.098e-01   -2.033e-01   -6.719e-03   1.087e-02    1.836e-03   /
#      CHEB/ -2.310e-04   -5.840e-05   1.423e-05    -2.613e-01   -1.369e-01  /
#      CHEB/ -3.456e-02   1.475e-03    2.885e-03    2.309e-04    -1.240e-04  /
#      CHEB/ -7.000e-06   -1.214e-01   -6.063e-02   -3.335e-02   -6.880e-03  /
#      CHEB/ 1.338e-03    6.676e-04    -1.877e-05   -3.094e-05   2.502e-03   /
#      CHEB/ -1.093e-02   -1.748e-02   -8.735e-03   -1.193e-03   5.093e-04   /
#      CHEB/ 1.555e-04    -1.192e-05   -6.776e-04   1.357e-02    -2.730e-03  /
#      CHEB/ -5.285e-03   -2.475e-03   -1.166e-04   1.962e-04    4.190e-05   /
#  bQOOHg(+M) <=> bQOOHa(+M)                           1.000e+00 0.000     0.000
#      TCHEB/ 180.000   1500.000 /
#      PCHEB/ 0.010     98.692   /
#      CHEB/ 10 8/
#      CHEB/ -4.946e+00   1.600e-02    -1.150e-02   -2.375e-02   -8.113e-03  /
#      CHEB/ -1.335e-04   1.065e-03    3.055e-04    2.963e-01    2.341e+00   /
#      CHEB/ 1.432e-01    -1.443e-02   -1.089e-02   -2.227e-03   9.189e-04   /
#      CHEB/ 4.488e-04    -2.549e+00   3.718e-01    4.318e-02    5.760e-02   /
#      CHEB/ 1.072e-02    -3.610e-03   -1.813e-03   -1.797e-07   -1.903e+00  /
#      CHEB/ -2.692e-01   -7.798e-02   2.492e-02    1.823e-02    3.213e-03   /
#      CHEB/ -1.305e-03   -7.145e-04   -1.050e+00   -1.907e-01   -6.112e-02  /
#      CHEB/ -1.731e-02   9.403e-04    4.709e-03    1.427e-03    -2.430e-04  /
#      CHEB/ -4.763e-01   -7.370e-02   -1.285e-02   -1.150e-02   -8.555e-03  /
#      CHEB/ -5.489e-04   1.336e-03    5.119e-04    -1.876e-01   -4.604e-02  /
#      CHEB/ 2.208e-03    4.950e-03    -3.334e-03   -2.949e-03   -3.954e-04  /
#      CHEB/ 3.615e-04    -7.063e-02   -3.173e-02   -6.726e-03   7.097e-03   /
#      CHEB/ 2.551e-03    -1.117e-03   -9.210e-04   -9.298e-05   -6.637e-03  /
#      CHEB/ -2.274e-02   -9.876e-03   -6.027e-04   2.787e-03    8.849e-04   /
#      CHEB/ -3.167e-04   -2.057e-04   3.772e-03    -2.004e-03   -1.025e-02  /
#      CHEB/ -4.821e-03   1.134e-04    1.006e-03    2.318e-04    -6.251e-05  /

# Reaction 8
chebyshev_reaction('bQOOH[O] (+ M) <=> bQOOHa (+ M)',
                   Tmin=180.0, Tmax=1500.0,
                   Pmin=(0.01, 'atm'), Pmax=(98.692, 'atm'),
                   coeffs=[[-3.36400e+00,  1.18000e+00, -5.19700e-02, -9.75000e-02, -1.39000e-02,  8.36500e-03,  1.33300e-03, -4.61100e-04],
                           [-1.76300e+00,  8.43800e-01,  1.51100e-01,  1.31900e-01, -6.53200e-03, -2.19400e-02, -9.09600e-04,  2.58300e-03],
                           [-2.53100e+00,  1.33700e-01, -1.81800e-01, -1.44400e-02,  3.43800e-02,  1.30200e-02, -2.29100e-03, -2.64600e-03],
                           [-1.73100e+00,  3.73500e-02, -2.51000e-02, -3.19300e-02, -2.87600e-03,  5.52700e-03,  2.24200e-03,  6.65900e-06],
                           [-1.01500e+00, -8.58100e-02,  5.59900e-02,  4.12500e-03, -9.79800e-03, -1.56000e-03,  1.24200e-03,  6.61800e-04],
                           [-4.73100e-01, -1.44000e-01,  8.41900e-03,  1.07000e-02, -2.79600e-03, -2.12100e-03,  2.31600e-04,  5.05000e-04],
                           [-2.50600e-01, -9.56200e-02, -1.58800e-02,  8.73500e-03,  1.81600e-03, -2.36000e-03, -1.15000e-03,  4.64700e-05],
                           [-1.31200e-01, -4.81400e-02, -2.85000e-02,  1.25900e-04,  5.66100e-03,  8.81500e-04, -1.03300e-03, -6.26400e-04],
                           [-4.18900e-03, -2.85700e-02, -1.89000e-02, -6.73700e-03,  7.53700e-04,  1.80900e-03,  5.33800e-04, -1.00500e-04],
                           [ 1.86900e-02,  1.64500e-02, -6.73300e-03, -6.96400e-03, -1.75000e-03,  5.60400e-04,  4.99500e-04,  6.69900e-05]])

# Reaction 9
chebyshev_reaction('O2 + bR (+ M) <=> bQOOHa (+ M)',
                   Tmin=180.0, Tmax=1500.0,
                   Pmin=(0.01, 'atm'), Pmax=(98.692, 'atm'),
                   coeffs=[[ 7.83400e+00,  1.19100e-01, -3.64400e-01,  3.32600e-02,  1.50700e-02, -8.78400e-03,  9.83700e-04,  9.66200e-04],
                           [-1.59600e+00,  1.86500e+00,  1.50400e-01, -8.28800e-02, -7.51600e-03,  1.37400e-02, -3.51700e-03, -9.17100e-04],
                           [-1.52200e+00,  5.92100e-01,  1.81600e-01,  1.77600e-02, -2.03000e-02, -1.16200e-03,  3.53700e-03, -7.97500e-04],
                           [-1.09800e+00,  2.47700e-02,  7.35600e-02,  3.72800e-02,  1.14300e-03, -5.72100e-03,  2.66900e-04,  8.57500e-04],
                           [-6.58400e-01, -1.18500e-01, -4.76700e-03,  1.67200e-02,  9.22500e-03, -8.36700e-04, -1.46600e-03,  2.27000e-04],
                           [-3.44600e-01, -1.04200e-01, -2.93100e-02, -1.76900e-03,  5.62000e-03,  1.93400e-03, -5.26500e-04, -3.09400e-04],
                           [-1.60300e-01, -5.94700e-02, -2.50300e-02, -8.98600e-03,  8.87600e-04,  1.59900e-03,  2.89900e-04, -1.91300e-04],
                           [-5.65500e-02, -2.21500e-02, -1.31500e-02, -9.06000e-03, -1.59700e-03,  5.94400e-04,  3.68300e-04,  1.19100e-05],
                           [-6.98000e-03, -9.42400e-04, -2.16600e-03, -5.86900e-03, -2.53400e-03, -9.12200e-05,  2.41600e-04,  6.85200e-05],
                           [ 1.43200e-02,  8.57300e-03,  4.25300e-03, -1.82200e-03, -2.27100e-03, -5.32500e-04,  1.07100e-04,  7.95000e-05]])
#  bRO2(+M) <=> bQOOH[O](+M)                           1.000e+00 0.000     0.000
#      TCHEB/ 180.000   1500.000 /
#      PCHEB/ 0.010     98.692   /
#      CHEB/ 10 8/
#      CHEB/ -5.955e+00   1.816e+00    -1.064e-01   -2.808e-02   -2.258e-03  /
#      CHEB/ 2.184e-03    9.938e-04    -3.737e-05   3.537e+00    3.353e-01   /
#      CHEB/ 1.104e-01    2.704e-02    -2.221e-04   -2.650e-03   -9.837e-04  /
#      CHEB/ 1.534e-04    -3.011e+00   -1.426e-01   -8.628e-02   -1.406e-02  /
#      CHEB/ 4.952e-03    4.493e-03    1.073e-03    -3.432e-04   -1.526e+00  /
#      CHEB/ 1.854e-02    -1.779e-02   -1.270e-02   -5.734e-03   -9.414e-04  /
#      CHEB/ 4.490e-04    3.780e-04    -7.851e-01   8.796e-03    3.079e-03   /
#      CHEB/ 3.449e-03    1.880e-03    1.442e-04    -4.860e-04   -3.104e-04  /
#      CHEB/ -3.605e-01   -5.404e-02   -1.750e-02   -2.663e-03   1.991e-03   /
#      CHEB/ 1.769e-03    6.429e-04    -1.978e-05   -2.516e-01   -1.714e-02  /
#      CHEB/ -3.581e-03   -4.215e-03   -1.816e-03   -3.012e-04   1.795e-04   /
#      CHEB/ 1.744e-04    -1.353e-01   -3.203e-02   -2.915e-03   9.704e-04   /
#      CHEB/ 4.683e-04    -1.983e-04   -2.866e-04   -1.431e-04   -4.718e-02  /
#      CHEB/ -1.723e-02   -5.645e-03   -2.411e-03   -2.753e-04   4.915e-04   /
#      CHEB/ 3.560e-04    7.143e-05    1.197e-02    -1.188e-02   -2.643e-03  /
#      CHEB/ 2.086e-04    -2.897e-04   -3.432e-04   -1.165e-04   3.267e-05   /
#  bQOOHg(+M) <=> bQOOH[O](+M)                         1.000e+00 0.000     0.000
#      TCHEB/ 180.000   1500.000 /
#      PCHEB/ 0.010     98.692   /
#      CHEB/ 10 8/
#      CHEB/ -5.936e+00   1.377e+00    -1.615e-02   -8.822e-02   -1.615e-02  /
#      CHEB/ 6.725e-03    1.300e-03    -1.641e-04   -4.057e+00   1.014e+00   /
#      CHEB/ 2.521e-01    1.163e-01    -9.625e-03   -1.885e-02   -9.533e-04  /
#      CHEB/ 1.687e-03    -3.665e+00   -9.227e-02   -1.701e-01   -5.937e-03  /
#      CHEB/ 3.049e-02    1.143e-02    -1.456e-03   -1.926e-03   -1.931e+00  /