units(length='cm', time='s', quantity='mol', act_energy='kcal/mol')

ideal_gas(name='gas',
          elements="H D T C Ci O Oi N Ne Ar He Si S F Cl Br I X",
          species="""aOOHbalkene      OH               ibutanal
                     aR               performic_acid   disub_c4ether
                     aQOOHb           H                aadduct
                     trisub_epoxy     ibutenol         aQOOH[O]
                     ipropyl          aRO2             O2
                     formic_acid      propene          aQOOHg
                     ibut_peroxyacid  HO2              CH3""",
          reactions='all',
          initial_state=state(temperature=300.0, pressure=OneAtm))

#-------------------------------------------------------------------------------
# Element data
#-------------------------------------------------------------------------------

element(symbol='Ci', atomic_mass=13.003)
element(symbol='D', atomic_mass=2.014)
element(symbol='Oi', atomic_mass=18.0)
element(symbol='T', atomic_mass=3.016)
element(symbol='X', atomic_mass=195.083)
#-------------------------------------------------------------------------------
# Species data
#-------------------------------------------------------------------------------

species(name='aOOHbalkene',
        atoms='C:3 H:6 O:3',
        thermo=(NASA([10.00, 497.41],
                     [ 3.76691735E+00,  1.51417956E-02,  1.85499431E-04,
                      -4.61303214E-07,  3.27678941E-10, -3.10927388E+04,
                       1.09903968E+01]),
                NASA([497.41, 3000.00],
                     [ 6.20882781E+00,  4.08866173E-02, -2.89934946E-05,
                       9.60428979E-09, -1.19355432E-12, -3.18970682E+04,
                      -4.72842811E+00])))

species(name='OH',
        atoms='H:1 O:1',
        thermo=(NASA([10.00, 984.14],
                     [ 3.49686242E+00,  1.83973160E-04, -9.97634499E-07,
                       1.56942783E-09, -6.10128175E-13,  3.41673934E+03,
                       1.48093120E+00]),
                NASA([984.14, 3000.00],
                     [ 3.45221464E+00, -2.95124034E-04,  7.39418622E-07,
                      -2.89309866E-10,  3.53041498E-14,  3.45751599E+03,
                       1.85813897E+00])))

species(name='ibutanal',
        atoms='C:4 H:8 O:1',
        thermo=(NASA([10.00, 683.88],
                     [ 3.57157346E+00,  3.36936906E-02, -1.78475021E-05,
                       1.31946716E-08, -7.58008388E-12, -2.76738984E+04,
                       1.05595084E+01]),
                NASA([683.88, 3000.00],
                     [ 1.29043622E+00,  4.14804229E-02, -2.27411206E-05,
                       6.08619500E-09, -6.38995128E-13, -2.72319793E+04,
                       2.16477430E+01])))

species(name='aR',
        atoms='C:4 H:9 O:1',
        thermo=(NASA([10.00, 455.22],
                     [ 3.59625500E+00,  3.38947981E-02,  7.37257079E-06,
                      -3.99275335E-08,  2.49019944E-11, -1.25453810E+04,
                       1.18269265E+01]),
                NASA([455.22, 3000.00],
                     [ 2.49586309E+00,  4.35639890E-02, -2.44887770E-05,
                       6.73363769E-09, -7.23862433E-13, -1.24451979E+04,
                       1.62696907E+01])))

species(name='performic_acid',
        atoms='C:1 H:2 O:3',
        thermo=(NASA([10.00, 590.95],
                     [ 3.92633851E+00,  4.24517168E-03,  6.71106764E-05,
                      -1.36545385E-07,  8.03337864E-11, -3.63028176E+04,
                       8.06485813E+00]),
                NASA([590.95, 3000.00],
                     [ 4.39992934E+00,  1.85411415E-02, -1.36005501E-05,
                       4.62292431E-09, -5.88463603E-13, -3.66643888E+04,
                       3.44353230E+00])))

species(name='disub_c4ether',
        atoms='C:4 H:8 O:2',
        thermo=(NASA([10.00, 413.50],
                     [ 3.78241323E+00,  1.89501763E-02,  8.65302396E-05,
                      -1.80580575E-07,  1.13656264E-10, -3.92433812E+04,
                       1.09982450E+01]),
                NASA([413.50, 3000.00],
                     [ 4.29420885E-01,  5.13851903E-02, -3.11292293E-05,
                       9.11498284E-09, -1.03192718E-12, -3.89660869E+04,
                       2.42134976E+01])))

species(name='aQOOHb',
        atoms='C:4 H:9 O:3',
        thermo=(NASA([10.00, 412.78],
                     [ 3.15498836E+00,  8.55068303E-02, -2.35307993E-04,
                       4.71983261E-07, -3.62709267E-10, -2.73960249E+04,
                       1.52522123E+01]),
                NASA([412.78, 3000.00],
                     [ 4.18099845E+00,  5.26168288E-02, -3.23998410E-05,
                       9.59389339E-09, -1.09464519E-12, -2.72852300E+04,
                       1.35782328E+01])))

species(name='H',
        atoms='H:1',
        thermo=(NASA([10.00, 794.01],
                     [ 2.50000000E+00,  1.99051163E-15, -1.19089508E-17,
                       2.10805655E-20, -1.11017699E-23,  2.54725594E+04,
                      -4.61279342E-01]),
                NASA([794.01, 3000.00],
                     [ 2.50000000E+00,  1.52667235E-14, -1.58445285E-17,
                       6.63088600E-21, -9.62111674E-25,  2.54725594E+04,
                      -4.61279342E-01])))

species(name='aadduct',
        atoms='C:4 H:9 O:3',
        thermo=(NASA([10.00, 449.84],
                     [ 3.06901904E+00,  9.20724491E-02, -2.68085092E-04,
                       5.15249897E-07, -3.68046586E-10, -3.09649968E+04,
                       1.46591735E+01]),
                NASA([449.84, 3000.00],
                     [ 4.11210745E+00,  5.16955724E-02, -2.97401041E-05,
                       8.32758939E-09, -9.08861448E-13, -3.07441559E+04,
                       1.39578825E+01])))

species(name='trisub_epoxy',
        atoms='C:4 H:8 O:2',
        thermo=(NASA([10.00, 209.19],
                     [ 3.75295042E+00,  2.37546930E-02,  1.26610110E-04,
                      -4.78364365E-07,  5.79468168E-10, -4.09865801E+04,
                       1.12739684E+01]),
                NASA([209.19, 3000.00],
                     [ 2.64185254E+00,  4.50006531E-02, -2.57361066E-05,
                       7.15266054E-09, -7.72980731E-13, -4.09400945E+04,
                       1.48960343E+01])))

species(name='ibutenol',
        atoms='C:4 H:8 O:1',
        thermo=(NASA([10.00, 135.97],
                     [ 3.95714996E+00,  5.72646980E-03,  4.63611760E-04,
                      -3.04137514E-06,  6.85019471E-09, -2.27389557E+04,
                       8.21931848E+00]),
                NASA([135.97, 3000.00],
                     [ 3.32467612E+00,  3.69033556E-02, -1.89960416E-05,
                       4.73417677E-09, -4.59705291E-13, -2.27333770E+04,
                       9.58133237E+00])))

species(name='aQOOH[O]',
        atoms='C:4 H:9 O:3',
        thermo=(NASA([10.00, 488.36],
                     [ 3.54559533E+00,  3.89536133E-02,  8.47689703E-05,
                      -2.45147486E-07,  1.76157259E-10, -2.35111264E+04,
                       1.34685910E+01]),
                NASA([488.36, 3000.00],
                     [ 3.94214913E+00,  5.71928314E-02, -3.72516212E-05,
                       1.15209013E-08, -1.35808341E-12, -2.38060874E+04,
                       9.21628964E+00])))

species(name='ipropyl',
        atoms='C:3 H:7',
        thermo=(NASA([10.00, 421.76],
                     [ 3.73943775E+00,  3.10070157E-02, -1.51196908E-04,
                       4.35367329E-07, -3.85565052E-10,  9.49213457E+03,
                       7.79448918E+00]),
                NASA([421.76, 3000.00],
                     [-4.74526725E-01,  3.20862468E-02, -1.67340747E-05,
                       4.21365136E-09, -4.13155573E-13,  1.01934458E+04,
                       2.85865912E+01])))

species(name='aRO2',
        atoms='C:4 H:9 O:3',
        thermo=(NASA([10.00, 670.36],
                     [ 3.45405325E+00,  4.74751311E-02,  9.77507759E-06,
                      -6.31019603E-08,  3.75500067E-11, -3.15080377E+04,
                       1.39284976E+01]),
                NASA([670.36, 3000.00],
                     [ 5.04137652E+00,  5.19952978E-02, -3.16472789E-05,
                       9.22798587E-09, -1.03598915E-12, -3.20352303E+04,
                       4.56056770E+00])))

species(name='O2',
        atoms='O:2',
        thermo=(NASA([10.00, 605.96],
                     [ 3.50743498E+00, -4.43860349E-04,  1.45938058E-06,
                       1.61509333E-09, -2.32050052E-12, -9.24756224E+02,
                       4.72183634E+00]),
                NASA([605.96, 3000.00],
                     [ 2.87462882E+00,  2.17840991E-03, -1.18262921E-06,
                       2.86910493E-10, -2.53297146E-14, -8.19517838E+02,
                       7.69331810E+00])))

species(name='formic_acid',
        atoms='C:1 H:2 O:2',
        thermo=(NASA([10.00, 741.38],
                     [ 4.06855785E+00, -4.74562133E-03,  4.71797900E-05,
                      -6.07490052E-08,  2.51286794E-11, -4.66880837E+04,
                       6.53681035E+00]),
                NASA([741.38, 3000.00],
                     [ 1.13645847E+00,  1.74953124E-02, -1.08112403E-05,
                       3.08075326E-09, -3.34892658E-13, -4.64297918E+04,
                       1.86149484E+01])))

species(name='propene',
        atoms='C:3 H:6',
        thermo=(NASA([10.00, 519.53],
                     [ 3.98723879E+00,  4.72040503E-04,  6.51776229E-05,
                      -9.89891002E-08,  4.91141123E-11,  1.25901635E+03,
                       6.98071210E+00]),
                NASA([519.53, 3000.00],
                     [ 3.79893331E-01,  2.82457690E-02, -1.50108430E-05,
                       3.90894069E-09, -4.00521928E-13,  1.63384370E+03,
                       2.20218922E+01])))

species(name='aQOOHg',
        atoms='C:4 H:9 O:3',
        thermo=(NASA([10.00, 455.48],
                     [ 3.62522127E+00,  2.83222320E-02,  2.08527447E-04,
                      -5.67427418E-07,  4.35169138E-10, -2.33996502E+04,
                       1.26617758E+01]),
                NASA([455.48, 3000.00],
                     [ 5.13914202E+00,  5.96270859E-02, -4.14435328E-05,
                       1.34202375E-08, -1.63474553E-12, -2.40002065E+04,
                       1.46991116E+00])))

species(name='ibut_peroxyacid',
        atoms='C:4 H:8 O:3',
        thermo=(NASA([10.00, 1386.21],
                     [ 3.50995385E+00,  4.78670384E-02, -2.40781384E-05,
                       3.71046938E-09,  3.85442115E-13, -4.94852939E+04,
                       1.22017268E+01]),
                NASA([1386.21, 3000.00],
                     [ 1.24543146E+01,  3.02396862E-02, -1.38577031E-05,
                       3.05328904E-09, -2.63982457E-13, -5.27511772E+04,
                      -3.67061828E+01])))

species(name='HO2',
        atoms='H:1 O:2',
        thermo=(NASA([10.00, 891.11],
                     [ 4.02887004E+00, -1.75769289E-03,  1.08726004E-05,
                      -1.13812972E-08,  3.90113097E-12,  4.95165001E+02,
                       4.69302008E+00]),
                NASA([891.11, 3000.00],
                     [ 3.06571044E+00,  4.28505005E-03, -2.19325920E-06,
                       5.58882699E-10, -5.61246669E-14,  5.98557610E+02,
                       8.84564156E+00])))

species(name='CH3',
        atoms='C:1 H:3',
        thermo=(NASA([10.00, 616.77],
                     [ 3.98929952E+00,  5.45150461E-04,  9.01320092E-06,
                      -1.08320497E-08,  4.38985879E-12,  1.65859883E+04,
                       2.22446886E-01]),
                NASA([616.77, 3000.00],
                     [ 3.35928237E+00,  4.63117126E-03, -9.24365433E-07,
                      -9.02514624E-11,  3.56905106E-14,  1.66637014E+04,
                       2.95743732E+00])))

#-------------------------------------------------------------------------------
# Reaction data
#-------------------------------------------------------------------------------

# Reaction 1
chebyshev_reaction('aQOOH[O] (+ M) <=> aQOOHb (+ M)',
                   Tmin=180.0, Tmax=1500.0,
                   Pmin=(0.01, 'atm'), Pmax=(98.692, 'atm'),
                   coeffs=[[-2.69600e+00,  1.61900e+00, -1.17500e-02,  4.68100e-02, -1.19800e-02,  5.54000e-03, -1.64200e-03, -8.83200e-04],
                           [-4.90700e+00,  1.27100e+00,  2.87400e-01, -1.88000e-02,  1.31800e-02,  2.21800e-03, -1.94000e-03, -1.34000e-03],
                           [-3.62300e+00,  2.56700e-01,  6.43700e-02, -2.22100e-02,  3.30800e-03,  5.40000e-03, -9.23400e-04, -6.81100e-04],
                           [-1.74800e+00, -9.50100e-03, -5.73600e-02, -3.38900e-02, -2.10800e-03,  3.36600e-03,  2.98800e-04,  1.73500e-04],
                           [-7.35000e-01, -1.05300e-02, -8.28200e-02, -3.64300e-02, -4.85100e-04,  2.21000e-03,  3.58600e-04,  5.42000e-04],
                           [-2.75000e-01,  3.03000e-02, -6.95000e-02, -3.27200e-02, -2.12500e-06,  2.18200e-03,  1.95000e-04,  4.66900e-04],
                           [-8.54300e-02,  4.51700e-02, -3.34100e-02, -2.13100e-02, -6.27600e-04,  8.85600e-04, -1.81100e-04,  2.70400e-04],
                           [-1.73900e-02,  3.93200e-02, -2.04000e-03, -4.04300e-03,  8.08200e-04, -9.44300e-04, -7.76000e-04,  8.11100e-05],
                           [-1.53800e-02,  3.22400e-02,  4.88500e-03,  1.02900e-02,  3.33100e-03, -1.58900e-03, -1.17500e-03, -5.51900e-05],
                           [-2.64500e-03, -1.52200e-03,  8.02900e-03,  1.07000e-02,  5.17400e-03, -1.03300e-03, -1.07100e-03, -5.08800e-05]])

# Reaction 2
chebyshev_reaction('aQOOHg (+ M) <=> aQOOHb (+ M)',
                   Tmin=180.0, Tmax=1500.0,
                   Pmin=(0.01, 'atm'), Pmax=(98.692, 'atm'),
                   coeffs=[[-5.71100e+00,  2.63900e+00, -3.82400e-01, -9.73700e-02,  4.93000e-04,  6.42600e-03,  1.05400e-03, -2.98600e-04],
                           [-4.39100e+00,  2.38300e+00,  4.07200e-01, -3.75300e-02, -3.44300e-02, -2.72300e-03,  1.18200e-03,  2.92600e-04],
                           [-3.93200e+00, -5.68400e-01,  8.14800e-02,  1.02400e-01,  8.93700e-03, -8.51000e-03, -2.27700e-03,  3.45800e-04],
                           [-1.89400e+00, -7.08700e-01, -1.84700e-01,  2.88200e-02,  2.64500e-02,  1.40800e-03, -2.44600e-03, -1.74500e-04],
                           [-6.60500e-01, -2.28500e-01, -1.33700e-01, -3.03200e-02,  3.96700e-03,  4.96400e-03,  1.34600e-03, -3.04400e-04],
                           [-1.99300e-01, -3.69100e-03, -2.50400e-02, -1.84200e-02, -6.98300e-03, -3.12000e-04,  1.40700e-03,  4.62400e-04],
                           [-7.54000e-02,  3.74300e-02,  8.28100e-03, -1.40300e-03, -1.87000e-03, -1.51300e-03, -4.40000e-04,  1.63800e-04],
                           [-2.77700e-02,  2.56200e-02,  8.45100e-03, -1.47100e-03, -6.06700e-04,  3.11800e-04, -8.44800e-05, -2.22200e-04],
                           [ 3.82800e-03,  1.56700e-02,  9.99300e-03, -1.42100e-03, -2.17800e-03, -1.54600e-04,  3.48400e-04,  8.41900e-05],
                           [ 2.50600e-03,  9.18500e-03,  7.58000e-03,  5.24800e-03,  3.43100e-04, -1.39800e-03, -4.72300e-04,  1.37100e-04]])

# Reaction 3
chebyshev_reaction('aRO2 (+ M) <=> aQOOHb (+ M)',
                   Tmin=180.0, Tmax=1500.0,
                   Pmin=(0.01, 'atm'), Pmax=(98.692, 'atm'),
                   coeffs=[[-8.50400e+00,  3.12600e+00, -4.08200e-01,  6.62400e-02, -8.22800e-03, -1.62900e-02,  6.52700e-03,  3.94300e-04],
                           [ 3.05500e+00,  1.28600e+00,  7.34800e-01, -1.45500e-01, -3.34400e-02,  1.19800e-02, -3.19700e-03,  1.10500e-03],
                           [-2.85800e+00,  7.81200e-02,  6.35500e-02,  5.96400e-02,  5.86700e-03, -2.28100e-03, -1.73300e-03, -4.60600e-04],
                           [-1.67900e+00, -5.13700e-01, -1.63200e-01,  3.29800e-02,  2.62700e-02,  4.36700e-03, -2.31300e-03, -1.36800e-03],
                           [-8.42400e-01, -3.29300e-01, -1.77700e-01, -1.00800e-02,  1.45500e-02,  3.75100e-03, -4.13800e-04, -5.00000e-04],
                           [-3.11800e-01, -5.88400e-02, -9.00800e-02, -2.15400e-02, -1.34800e-03, -4.25400e-04,  3.97000e-04,  3.99300e-04],
                           [-7.37300e-02,  6.28900e-02, -1.24200e-02, -1.17500e-02, -7.42500e-03, -2.63500e-03,  3.64900e-04,  5.65000e-04],
                           [ 2.03200e-02,  4.38300e-02,  3.18100e-02,  1.28700e-03, -6.82400e-03, -1.79500e-03,  1.22800e-05,  2.52400e-04],
                           [-6.63400e-03,  4.56600e-02,  1.83600e-02,  9.54600e-03,  2.94300e-04, -1.65800e-03, -2.47100e-04,  1.09700e-04],
                           [-1.02600e-02,  9.74300e-03,  6.14900e-03,  8.19200e-03,  3.49900e-03, -8.97900e-05, -3.15200e-04, -1.14400e-04]])

# Reaction 4
chebyshev_reaction('aadduct (+ M) <=> aQOOHb (+ M)',
                   Tmin=180.0, Tmax=1500.0,
                   Pmin=(0.01, 'atm'), Pmax=(98.692, 'atm'),
                   coeffs=[[-1.18800e+01,  2.06400e+00, -3.25600e-01,  6.41700e-02, -6.76100e-03, -1.70400e-02,  6.95100e-03,  4.23700e-04],
                           [ 1.42600e+00,  1.67800e+00,  7.29500e-01, -1.57400e-01, -2.83800e-02,  1.31600e-02, -3.60500e-03,  5.55400e-04],
                           [-3.38100e+00,  2.98200e-01,  4.62300e-02,  4.99800e-02,  1.18200e-02, -1.48300e-03, -2.52300e-03, -7.28900e-04],
                           [-1.95200e+00, -3.65500e-01, -1.81100e-01,  2.51400e-02,  3.04100e-02,  6.11900e-03, -3.66500e-03, -1.46800e-03],
                           [-9.45400e-01, -2.29300e-01, -1.97700e-01, -1.25200e-02,  1.58200e-02,  4.75000e-03,  1.13100e-04, -1.46600e-03],
                           [-3.29500e-01,  3.11800e-03, -1.03900e-01, -2.54300e-02,  3.18000e-04,  9.57200e-04, -5.23300e-04,  5.27500e-04],
                           [-6.06800e-02,  9.83100e-02, -2.24100e-02, -1.58400e-02, -4.30700e-03, -3.47300e-03,  1.37400e-04,  1.38200e-03],
                           [ 3.44200e-02,  6.20700e-02,  2.31900e-02,  1.09500e-03, -6.88300e-03, -1.85300e-03,  3.54400e-04,  2.42800e-04],
                           [ 1.73300e-03,  5.39900e-02,  1.12500e-02,  1.14900e-02, -6.31300e-04, -2.48100e-03,  9.48500e-04, -1.37100e-04],
                           [-6.41100e-03,  9.40400e-03,  5.22700e-03,  8.11300e-03,  2.99000e-03, -6.54300e-05, -4.84800e-04,  2.50000e-04]])

# Reaction 5
chebyshev_reaction('O2 + aR (+ M) <=> aQOOHb (+ M)',
                   Tmin=180.0, Tmax=1500.0,
                   Pmin=(0.01, 'atm'), Pmax=(98.692, 'atm'),
                   coeffs=[[ 4.43500e+00,  6.75000e+00, -1.51800e+00, -2.95000e-01,  1.89300e-01,  5.43700e-03, -3.08100e-02,  6.22000e-03],
                           [-2.12700e+00, -1.76500e+00,  1.77900e+00, -1.15300e-01, -2.41700e-01,  5.64700e-02,  3.82500e-02, -1.59200e-02],
                           [-1.73800e+00, -6.60800e-01,  2.36300e-01,  1.90900e-01, -4.30400e-02, -3.51900e-02,  1.11300e-02,  5.69900e-03],
                           [-1.01700e+00, -5.15900e-01, -4.89400e-02,  9.96100e-02,  1.67700e-02, -1.49600e-02, -4.04900e-03,  2.89000e-03],
                           [-4.76500e-01, -2.68000e-01, -9.40600e-02,  2.05000e-02,  1.85500e-02, -5.96400e-04, -3.29400e-03,  4.17800e-04],
                           [-1.69200e-01, -7.38000e-02, -6.08400e-02, -1.33800e-02,  6.71300e-03,  2.09100e-03, -2.42900e-04, -6.72200e-05],
                           [-3.25900e-02,  2.43600e-02, -1.54000e-02, -1.49600e-02, -1.86000e-03,  3.56700e-04,  6.89200e-04,  1.14700e-04],
                           [ 2.86300e-03,  4.96600e-02,  8.89600e-03, -2.28200e-03, -4.43500e-03, -9.62400e-04,  1.29100e-04,  1.56300e-04],
                           [ 2.45600e-03,  2.84400e-02,  1.57500e-02,  5.39100e-03, -1.06900e-03, -1.28400e-03, -5.82200e-04,  1.11800e-04],
                           [-7.14500e-03,  3.77500e-03,  7.36700e-03,  6.30800e-03,  1.96800e-03, -3.30800e-04, -6.03500e-04, -1.28700e-04]])
#  aQOOHb(+M) <=> aQOOH[O](+M)                         1.000e+00 0.000     0.000
#      TCHEB/ 180.000   1500.000 /
#      PCHEB/ 0.010     98.692   /
#      CHEB/ 10 8/
#      CHEB/ -9.439e+00   1.619e+00    -1.175e-02   4.681e-02    -1.198e-02  /
#      CHEB/ 5.540e-03    -1.642e-03   -8.832e-04   -9.611e-01   1.271e+00   /
#      CHEB/ 2.874e-01    -1.880e-02   1.318e-02    2.218e-03    -1.940e-03  /
#      CHEB/ -1.340e-03   -3.545e+00   2.567e-01    6.437e-02    -2.221e-02  /
#      CHEB/ 3.308e-03    5.400e-03    -9.234e-04   -6.811e-04   -1.702e+00  /
#      CHEB/ -9.501e-03   -5.736e-02   -3.389e-02   -2.108e-03   3.366e-03   /
#      CHEB/ 2.988e-04    1.735e-04    -7.196e-01   -1.053e-02   -8.282e-02  /
#      CHEB/ -3.643e-02   -4.851e-04   2.210e-03    3.586e-04    5.420e-04   /
#      CHEB/ -2.702e-01   3.030e-02    -6.950e-02   -3.272e-02   -2.125e-06  /
#      CHEB/ 2.182e-03    1.950e-04    4.669e-04    -8.362e-02   4.517e-02   /
#      CHEB/ -3.341e-02   -2.131e-02   -6.276e-04   8.856e-04    -1.811e-04  /
#      CHEB/ 2.704e-04    -1.667e-02   3.932e-02    -2.040e-03   -4.043e-03  /
#      CHEB/ 8.082e-04    -9.443e-04   -7.760e-04   8.111e-05    -1.518e-02  /
#      CHEB/ 3.224e-02    4.885e-03    1.029e-02    3.331e-03    -1.589e-03  /
#      CHEB/ -1.175e-03   -5.519e-05   -2.638e-03   -1.522e-03   8.029e-03   /
#      CHEB/ 1.070e-02    5.174e-03    -1.033e-03   -1.071e-03   -5.088e-05  /

# Reaction 6
chebyshev_reaction('aQOOHg (+ M) <=> aQOOH[O] (+ M)',
                   Tmin=180.0, Tmax=1500.0,
                   Pmin=(0.01, 'atm'), Pmax=(98.692, 'atm'),
                   coeffs=[[-4.51300e+00,  2.13200e+00, -1.81500e-02,  1.03800e-02, -2.27800e-02,  1.07700e-04,  1.62200e-04,  1.15200e-03],
                           [-5.93100e+00,  1.13800e+00,  2.58600e-01, -5.73000e-02,  1.03300e-02,  3.34200e-03, -1.55000e-03, -5.91600e-04],
                           [-3.97300e+00, -1.66700e-01, -2.10500e-01, -1.30800e-02,  3.53000e-02,  8.62900e-03, -3.36300e-03, -1.95100e-03],
                           [-1.64200e+00, -1.21700e-01, -2.47900e-01, -3.32700e-02,  2.41700e-02,  2.06100e-03, -2.66600e-03,  2.10600e-04],
                           [-5.54700e-01,  1.07300e-01, -7.72000e-02, -1.45700e-02, -3.88000e-03, -6.90400e-03,  1.13600e-03,  2.21000e-03],
                           [-2.07200e-01,  1.00400e-01,  1.91600e-02,  1.77700e-02, -1.03000e-02, -9.37200e-03,  2.37500e-03,  1.89200e-03],
                           [-1.25100e-01,  1.23100e-02,  1.36600e-02,  2.27200e-02, -2.27700e-03, -3.67700e-03,  1.41200e-03, -2.14700e-04],
                           [-6.59900e-02, -3.10900e-02, -5.33000e-03,  5.62100e-03, -7.41600e-04,  2.28900e-03,  1.60600e-03, -1.43800e-03],
                           [-1.78800e-02, -1.00700e-02, -8.80100e-03, -3.09700e-03, -4.33000e-03,  2.74200e-03,  1.53300e-03, -9.91400e-04],
                           [ 8.95700e-03,  2.30200e-04,  4.84300e-03, -2.46600e-04, -3.22000e-03,  6.34000e-04, -4.60200e-05, -3.57500e-04]])

# Reaction 7
chebyshev_reaction('aRO2 (+ M) <=> aQOOH[O] (+ M)',
                   Tmin=180.0, Tmax=1500.0,
                   Pmin=(0.01, 'atm'), Pmax=(98.692, 'atm'),
                   coeffs=[[-1.23200e+01,  7.78100e+00, -1.06100e+00, -4.76800e-01,  1.88100e-01,  5.82200e-02, -5.39500e-02,  5.17600e-03],
                           [ 7.17800e+00, -2.84800e+00,  1.03100e+00,  3.71900e-01, -2.28900e-01, -5.01500e-02,  7.83500e-02, -1.51700e-02],
                           [-3.09200e+00, -9.04100e-01,  1.10400e-01,  8.16700e-03,  6.96500e-03,  1.99800e-02, -2.77800e-02,  8.03900e-03],
                           [-1.66800e+00, -1.08100e-01, -1.90500e-01,  3.03600e-02,  3.12600e-02, -3.10200e-02,  1.15200e-02,  4.12900e-03],
                           [-7.08300e-01, -6.79900e-02, -3.61600e-02, -1.97500e-03, -1.64400e-02,  1.55300e-02, -3.90900e-03, -5.80700e-03],
                           [-2.85700e-01,  4.75900e-03, -4.62700e-03, -1.83000e-02,  8.98200e-03, -3.60100e-03, -2.39100e-03,  4.51400e-03],
                           [-1.44600e-01,  5.97900e-02,  5.86500e-04, -1.40900e-03, -1.28900e-03, -3.69300e-03,  3.24600e-03, -1.29700e-03],
                           [-5.22900e-02,  2.71700e-02,  1.39900e-02,  1.92500e-03, -6.55900e-03,  6.00800e-03, -2.83700e-03, -1.37000e-03],
                           [-1.40900e-02,  1.72300e-02, -8.33100e-03,  8.30800e-03,  6.42400e-03, -7.11600e-03,  2.05300e-03,  2.12800e-03],
                           [-9.13800e-04, -1.94000e-02,  2.29500e-02, -8.66300e-03, -1.35300e-03,  6.29800e-03, -2.16600e-03, -1.87700e-03]])

# Reaction 8
chebyshev_reaction('aadduct (+ M) <=> aQOOH[O] (+ M)',
                   Tmin=180.0, Tmax=1500.0,
                   Pmin=(0.01, 'atm'), Pmax=(98.692, 'atm'),
                   coeffs=[[-1.57000e+01,  6.70400e+00, -9.68500e-01, -4.73600e-01,  1.87000e-01,  5.62500e-02, -5.30200e-02,  5.44600e-03],
                           [ 5.53600e+00, -2.48400e+00,  1.04300e+00,  3.70500e-01, -2.28900e-01, -5.12600e-02,  7.88700e-02, -1.52600e-02],
                           [-3.62900e+00, -7.06500e-01,  1.07500e-01,  8.21400e-03,  8.54000e-03,  1.87500e-02, -2.78500e-02,  8.16300e-03],
                           [-1.95500e+00,  2.21200e-02, -1.96100e-01,  2.98800e-02,  3.24700e-02, -3.09900e-02,  1.06100e-02,  4.34200e-03],
                           [-8.23900e-01,  1.74500e-02, -4.56600e-02,  2.73400e-04, -1.67000e-02,  1.53200e-02, -3.30100e-03, -6.54800e-03],
                           [-3.14100e-01,  5.59800e-02, -1.05000e-02, -1.93500e-02,  9.95000e-03, -2.76400e-03, -3.55300e-03,  4.75000e-03],
                           [-1.40300e-01,  8.82000e-02, -4.32100e-03, -3.93400e-03,  1.69100e-03, -4.55700e-03,  2.61600e-03, -5.02300e-04],
                           [-4.47400e-02,  4.10600e-02,  8.30400e-03,  2.14600e-03, -6.20400e-03,  6.16600e-03, -2.91600e-03, -1.48700e-03],
                           [-1.01100e-02,  2.30100e-02, -1.40600e-02,  9.79800e-03,  6.30400e-03, -7.63200e-03,  2.86300e-03,  1.75400e-03],
                           [ 1.80400e-04, -2.07400e-02,  2.21000e-02, -9.52600e-03, -9.80900e-04,  6.67800e-03, -2.67000e-03, -1.62400e-03]])

# Reaction 9
chebyshev_reaction('O2 + aR (+ M) <=> aQOOH[O] (+ M)',
                   Tmin=180.0, Tmax=1500.0,
                   Pmin=(0.01, 'atm'), Pmax=(98.692, 'atm'),
                   coeffs=[[ 5.86900e-01,  6.37400e+00,  1.23300e+00, -3.54300e-01, -2.89700e-01,  8.22600e-03,  1.64100e-02,  9.94100e-03],
                           [-5.10800e-01, -3.78400e+00, -6.84600e-01,  6.72300e-01,  2.75000e-01, -1.07800e-01, -1.72800e-02,  9.80800e-03],
                           [-1.45500e+00, -2.92100e-01, -2.86300e-01, -1.20500e-01,  1.03800e-01,  8.37000e-02, -5.12400e-02, -3.24700e-02],
                           [-8.09900e-01,  6.12600e-03, -2.17200e-02, -9.65000e-02, -6.25200e-02,  2.88600e-02,  5.21000e-02, -3.17600e-03],
                           [-3.50100e-01,  3.46200e-02, -3.06600e-02, -2.15800e-02, -3.52900e-03, -1.09300e-02, -3.50600e-03,  1.32500e-02],
                           [-1.46800e-01,  7.01700e-04, -1.50900e-02,  3.51300e-03, -1.55500e-03, -7.25300e-03, -5.05000e-03,  1.27800e-03],
                           [-6.64500e-02, -4.41900e-03,  7.80500e-03,  6.07500e-03, -1.01400e-02, -4.47600e-03,  5.60700e-03,  3.15800e-04],
                           [-5.09000e-02,  1.88700e-02,  3.57600e-03, -8.50200e-03,  2.48200e-03,  3.27400e-03, -4.09200e-03, -1.11400e-03],
                           [-1.64300e-02,  9.54700e-04,  7.86300e-03, -1.98100e-03, -7.66800e-04,  1.79300e-03,  5.14100e-04, -1.79200e-03],
                           [-9.71300e-03,  7.54800e-03, -5.04100e-03,  3.15100e-03,  4.56300e-03, -2.35300e-03, -1.91300e-03,  2.07600e-03]])
#  aQOOHb(+M) <=> aQOOHg(+M)                           1.000e+00 0.000     0.000
#      TCHEB/ 180.000   1500.000 /
#      PCHEB/ 0.010     98.692   /
#      CHEB/ 10 8/
#      CHEB/ -1.280e+01   2.639e+00    -3.824e-01   -9.737e-02   4.930e-04   /
#      CHEB/ 6.426e-03    1.054e-03    -2.986e-04   -2.284e-02   2.383e+00   /
#      CHEB/ 4.072e-01    -3.753e-02   -3.443e-02   -2.723e-03   1.182e-03   /
#      CHEB/ 2.926e-04    -3.709e+00   -5.684e-01   8.148e-02    1.024e-01   /
#      CHEB/ 8.937e-03    -8.510e-03   -2.277e-03   3.458e-04    -1.800e+00  /
#      CHEB/ -7.087e-01   -1.847e-01   2.882e-02    2.645e-02    1.408e-03   /
#      CHEB/ -2.446e-03   -1.745e-04   -6.323e-01   -2.285e-01   -1.337e-01  /
#      CHEB/ -3.032e-02   3.967e-03    4.964e-03    1.346e-03    -3.044e-04  /
#      CHEB/ -1.914e-01   -3.691e-03   -2.504e-02   -1.842e-02   -6.983e-03  /
#      CHEB/ -3.120e-04   1.407e-03    4.624e-04    -7.289e-02   3.743e-02   /
#      CHEB/ 8.281e-03    -1.403e-03   -1.870e-03   -1.513e-03   -4.400e-04  /
#      CHEB/ 1.638e-04    -2.704e-02   2.562e-02    8.451e-03    -1.471e-03  /
#      CHEB/ -6.067e-04   3.118e-04    -8.448e-05   -2.222e-04   3.850e-03   /
#      CHEB/ 1.567e-02    9.993e-03    -1.421e-03   -2.178e-03   -1.546e-04  /
#      CHEB/ 3.484e-04    8.419e-05    2.364e-03    9.185e-03    7.580e-03   /
#      CHEB/ 5.248e-03    3.431e-04    -1.398e-03   -4.723e-04   1.371e-04   /
#  aQOOH[O](+M) <=> aQOOHg(+M)                         1.000e+00 0.000     0.000
#      TCHEB/ 180.000   1500.000 /
#      PCHEB/ 0.010     98.692   /
#      CHEB/ 10 8/
#      CHEB/ -4.859e+00   2.132e+00    -1.815e-02   1.038e-02    -2.278e-02  /
#      CHEB/ 1.077e-04    1.622e-04    1.152e-03    -5.508e+00   1.138e+00   /
#      CHEB/ 2.586e-01    -5.730e-02   1.033e-02    3.342e-03    -1.550e-03  /
#      CHEB/ -5.916e-04   -3.828e+00   -1.667e-01   -2.105e-01   -1.308e-02  /
#      CHEB/ 3.530e-02    8.629e-03    -3.363e-03   -1.951e-03   -1.594e+00  /
#      CHEB/ -1.217e-01   -2.479e-01   -3.327e-02   2.417e-02    2.061e-03   /
#      CHEB/ -2.666e-03   2.106e-04    -5.418e-01   1.073e-01    -7.720e-02  /
#      CHEB/ -1.457e-02   -3.880e-03   -6.904e-03   1.136e-03    2.210e-03   /