units(length='cm', time='s', quantity='mol', act_energy='kcal/mol')

ideal_gas(name='gas',
          elements="H D T C Ci O Oi N Ne Ar He Si S F Cl Br I X",
          species="""aOOHbalkene      OH               ibutanal
                     aR               performic_acid   disub_c4ether
                     aQOOHb           H                aadduct
                     trisub_epoxy     ibutenol         aQOOH[O]
                     ipropyl          aRO2             O2
                     formic_acid      propene          aQOOHg
                     ibut_peroxyacid  HO2              CH3""",
          reactions='all',
          initial_state=state(temperature=300.0, pressure=OneAtm))

#-------------------------------------------------------------------------------
# Element data
#-------------------------------------------------------------------------------

element(symbol='Ci', atomic_mass=13.003)
element(symbol='D', atomic_mass=2.014)
element(symbol='Oi', atomic_mass=18.0)
element(symbol='T', atomic_mass=3.016)
element(symbol='X', atomic_mass=195.083)
#-------------------------------------------------------------------------------
# Species data
#-------------------------------------------------------------------------------

species(name='aOOHbalkene',
        atoms='C:3 H:6 O:3',
        thermo=(NASA([10.00, 497.41],
                     [ 3.76691735E+00,  1.51417956E-02,  1.85499431E-04,
                      -4.61303214E-07,  3.27678941E-10, -2.98837375E+04,
                       1.09903968E+01]),
                NASA([497.41, 3000.00],
                     [ 6.20882781E+00,  4.08866173E-02, -2.89934946E-05,
                       9.60428979E-09, -1.19355432E-12, -3.06880669E+04,
                      -4.72842811E+00])))

species(name='OH',
        atoms='H:1 O:1',
        thermo=(NASA([10.00, 984.14],
                     [ 3.49686242E+00,  1.83973160E-04, -9.97634499E-07,
                       1.56942783E-09, -6.10128175E-13,  3.41673934E+03,
                       1.48093120E+00]),
                NASA([984.14, 3000.00],
                     [ 3.45221464E+00, -2.95124034E-04,  7.39418622E-07,
                      -2.89309866E-10,  3.53041498E-14,  3.45751599E+03,
                       1.85813897E+00])))

species(name='ibutanal',
        atoms='C:4 H:8 O:1',
        thermo=(NASA([10.00, 683.88],
                     [ 3.57157346E+00,  3.36936906E-02, -1.78475021E-05,
                       1.31946716E-08, -7.58008388E-12, -2.70388777E+04,
                       1.05595084E+01]),
                NASA([683.88, 3000.00],
                     [ 1.29043622E+00,  4.14804229E-02, -2.27411206E-05,
                       6.08619500E-09, -6.38995128E-13, -2.65969586E+04,
                       2.16477430E+01])))

species(name='aR',
        atoms='C:4 H:9 O:1',
        thermo=(NASA([10.00, 455.22],
                     [ 3.59625500E+00,  3.38947981E-02,  7.37257079E-06,
                      -3.99275335E-08,  2.49019944E-11, -1.25869468E+04,
                       1.18269265E+01]),
                NASA([455.22, 3000.00],
                     [ 2.49586309E+00,  4.35639890E-02, -2.44887770E-05,
                       6.73363769E-09, -7.23862433E-13, -1.24867637E+04,
                       1.62696907E+01])))

species(name='performic_acid',
        atoms='C:1 H:2 O:3',
        thermo=(NASA([10.00, 590.95],
                     [ 3.92633851E+00,  4.24517168E-03,  6.71106764E-05,
                      -1.36545385E-07,  8.03337864E-11, -3.63028176E+04,
                       8.06485813E+00]),
                NASA([590.95, 3000.00],
                     [ 4.39992934E+00,  1.85411415E-02, -1.36005501E-05,
                       4.62292431E-09, -5.88463603E-13, -3.66643888E+04,
                       3.44353230E+00])))

species(name='disub_c4ether',
        atoms='C:4 H:8 O:2',
        thermo=(NASA([10.00, 413.50],
                     [ 3.78241323E+00,  1.89501763E-02,  8.65302396E-05,
                      -1.80580575E-07,  1.13656264E-10, -3.80392413E+04,
                       1.09982450E+01]),
                NASA([413.50, 3000.00],
                     [ 4.29420885E-01,  5.13851903E-02, -3.11292293E-05,
                       9.11498284E-09, -1.03192718E-12, -3.77619469E+04,
                       2.42134976E+01])))

species(name='aQOOHb',
        atoms='C:4 H:9 O:3',
        thermo=(NASA([10.00, 412.78],
                     [ 3.15498836E+00,  8.55068303E-02, -2.35307993E-04,
                       4.71983261E-07, -3.62709267E-10, -2.84914619E+04,
                       1.52522123E+01]),
                NASA([412.78, 3000.00],
                     [ 4.18099845E+00,  5.26168288E-02, -3.23998410E-05,
                       9.59389339E-09, -1.09464519E-12, -2.83806670E+04,
                       1.35782328E+01])))

species(name='H',
        atoms='H:1',
        thermo=(NASA([10.00, 794.01],
                     [ 2.50000000E+00,  1.99051163E-15, -1.19089508E-17,
                       2.10805655E-20, -1.11017699E-23,  2.54725594E+04,
                      -4.61279342E-01]),
                NASA([794.01, 3000.00],
                     [ 2.50000000E+00,  1.52667235E-14, -1.58445285E-17,
                       6.63088600E-21, -9.62111674E-25,  2.54725594E+04,
                      -4.61279342E-01])))

species(name='aadduct',
        atoms='C:4 H:9 O:3',
        thermo=(NASA([10.00, 449.84],
                     [ 3.06901904E+00,  9.20724491E-02, -2.68085092E-04,
                       5.15249897E-07, -3.68046586E-10, -3.12515227E+04,
                       1.46591735E+01]),
                NASA([449.84, 3000.00],
                     [ 4.11210745E+00,  5.16955724E-02, -2.97401041E-05,
                       8.32758939E-09, -9.08861448E-13, -3.10306817E+04,
                       1.39578825E+01])))

species(name='trisub_epoxy',
        atoms='C:4 H:8 O:2',
        thermo=(NASA([10.00, 209.19],
                     [ 3.75295042E+00,  2.37546930E-02,  1.26610110E-04,
                      -4.78364365E-07,  5.79468168E-10, -4.01965525E+04,
                       1.12739684E+01]),
                NASA([209.19, 3000.00],
                     [ 2.64185254E+00,  4.50006531E-02, -2.57361066E-05,
                       7.15266054E-09, -7.72980731E-13, -4.01500670E+04,
                       1.48960343E+01])))

species(name='ibutenol',
        atoms='C:4 H:8 O:1',
        thermo=(NASA([10.00, 135.97],
                     [ 3.95714996E+00,  5.72646980E-03,  4.63611760E-04,
                      -3.04137514E-06,  6.85019471E-09, -2.31876056E+04,
                       8.21931848E+00]),
                NASA([135.97, 3000.00],
                     [ 3.32467612E+00,  3.69033556E-02, -1.89960416E-05,
                       4.73417677E-09, -4.59705291E-13, -2.31820269E+04,
                       9.58133237E+00])))

species(name='aQOOH[O]',
        atoms='C:4 H:9 O:3',
        thermo=(NASA([10.00, 488.36],
                     [ 3.54559533E+00,  3.89536133E-02,  8.47689703E-05,
                      -2.45147486E-07,  1.76157259E-10, -2.52924445E+04,
                       1.34685910E+01]),
                NASA([488.36, 3000.00],
                     [ 3.94214913E+00,  5.71928314E-02, -3.72516212E-05,
                       1.15209013E-08, -1.35808341E-12, -2.55874054E+04,
                       9.21628964E+00])))

species(name='ipropyl',
        atoms='C:3 H:7',
        thermo=(NASA([10.00, 421.76],
                     [ 3.73943775E+00,  3.10070157E-02, -1.51196908E-04,
                       4.35367329E-07, -3.85565052E-10,  9.49213457E+03,
                       7.79448918E+00]),
                NASA([421.76, 3000.00],
                     [-4.74526725E-01,  3.20862468E-02, -1.67340747E-05,
                       4.21365136E-09, -4.13155573E-13,  1.01934458E+04,
                       2.85865912E+01])))

species(name='aRO2',
        atoms='C:4 H:9 O:3',
        thermo=(NASA([10.00, 670.36],
                     [ 3.45405325E+00,  4.74751311E-02,  9.77507759E-06,
                      -6.31019603E-08,  3.75500067E-11, -3.30676941E+04,
                       1.39284976E+01]),
                NASA([670.36, 3000.00],
                     [ 5.04137652E+00,  5.19952978E-02, -3.16472789E-05,
                       9.22798587E-09, -1.03598915E-12, -3.35948867E+04,
                       4.56056770E+00])))

species(name='O2',
        atoms='O:2',
        thermo=(NASA([10.00, 605.96],
                     [ 3.50743498E+00, -4.43860349E-04,  1.45938058E-06,
                       1.61509333E-09, -2.32050052E-12, -9.24756224E+02,
                       4.72183634E+00]),
                NASA([605.96, 3000.00],
                     [ 2.87462882E+00,  2.17840991E-03, -1.18262921E-06,
                       2.86910493E-10, -2.53297146E-14, -8.19517838E+02,
                       7.69331810E+00])))

species(name='formic_acid',
        atoms='C:1 H:2 O:2',
        thermo=(NASA([10.00, 741.38],
                     [ 4.06855785E+00, -4.74562133E-03,  4.71797900E-05,
                      -6.07490052E-08,  2.51286794E-11, -4.66880837E+04,
                       6.53681035E+00]),
                NASA([741.38, 3000.00],
                     [ 1.13645847E+00,  1.74953124E-02, -1.08112403E-05,
                       3.08075326E-09, -3.34892658E-13, -4.64297918E+04,
                       1.86149484E+01])))

species(name='propene',
        atoms='C:3 H:6',
        thermo=(NASA([10.00, 519.53],
                     [ 3.98723879E+00,  4.72040503E-04,  6.51776229E-05,
                      -9.89891002E-08,  4.91141123E-11,  3.35073320E+03,
                       6.98071210E+00]),
                NASA([519.53, 3000.00],
                     [ 3.79893331E-01,  2.82457690E-02, -1.50108430E-05,
                       3.90894069E-09, -4.00521928E-13,  3.72556055E+03,
                       2.20218922E+01])))

species(name='aQOOHg',
        atoms='C:4 H:9 O:3',
        thermo=(NASA([10.00, 455.48],
                     [ 3.62522127E+00,  2.83222320E-02,  2.08527447E-04,
                      -5.67427418E-07,  4.35169138E-10, -2.62848837E+04,
                       1.26617758E+01]),
                NASA([455.48, 3000.00],
                     [ 5.13914202E+00,  5.96270859E-02, -4.14435328E-05,
                       1.34202375E-08, -1.63474553E-12, -2.68854401E+04,
                       1.46991116E+00])))

species(name='ibut_peroxyacid',
        atoms='C:4 H:8 O:3',
        thermo=(NASA([10.00, 1386.21],
                     [ 3.50995385E+00,  4.78670384E-02, -2.40781384E-05,
                       3.71046938E-09,  3.85442115E-13, -4.79817684E+04,
                       1.22017268E+01]),
                NASA([1386.21, 3000.00],
                     [ 1.24543146E+01,  3.02396862E-02, -1.38577031E-05,
                       3.05328904E-09, -2.63982457E-13, -5.12476517E+04,
                      -3.67061828E+01])))

species(name='HO2',
        atoms='H:1 O:2',
        thermo=(NASA([10.00, 891.11],
                     [ 4.02887004E+00, -1.75769289E-03,  1.08726004E-05,
                      -1.13812972E-08,  3.90113097E-12,  4.95165001E+02,
                       4.69302008E+00]),
                NASA([891.11, 3000.00],
                     [ 3.06571044E+00,  4.28505005E-03, -2.19325920E-06,
                       5.58882699E-10, -5.61246669E-14,  5.98557610E+02,
                       8.84564156E+00])))

species(name='CH3',
        atoms='C:1 H:3',
        thermo=(NASA([10.00, 616.77],
                     [ 3.98929952E+00,  5.45150461E-04,  9.01320092E-06,
                      -1.08320497E-08,  4.38985879E-12,  1.65859883E+04,
                       2.22446886E-01]),
                NASA([616.77, 3000.00],
                     [ 3.35928237E+00,  4.63117126E-03, -9.24365433E-07,
                      -9.02514624E-11,  3.56905106E-14,  1.66637014E+04,
                       2.95743732E+00])))

#-------------------------------------------------------------------------------
# Reaction data
#-------------------------------------------------------------------------------

# Reaction 1
chebyshev_reaction('aQOOH[O] (+ M) <=> aQOOHb (+ M)',
                   Tmin=180.0, Tmax=1500.0,
                   Pmin=(0.01, 'atm'), Pmax=(98.692, 'atm'),
                   coeffs=[[-6.32400e-01,  1.88400e+00, -4.97500e-01, -7.33200e-02,  1.19300e-03,  8.54500e-03,  1.52500e-03, -5.66200e-04],
                           [ 3.94500e+00,  1.53500e+00,  1.43400e-01, -2.17200e-02, -1.33800e-02, -6.22700e-03,  1.12700e-03,  1.17000e-03],
                           [ 5.72500e-01,  2.38200e-01,  5.56900e-02, -1.24800e-02,  2.13800e-03,  1.49900e-03, -8.87800e-04, -1.64400e-04],
                           [ 1.70900e-01,  2.50300e-02,  6.63300e-02, -5.74100e-03, -1.27700e-02,  2.67800e-04,  1.20600e-03,  3.27800e-05],
                           [-1.11900e-02,  1.08900e-02,  4.59000e-02,  1.45900e-02, -8.50700e-03, -4.07400e-03,  6.12500e-04,  4.47900e-04],
                           [-4.63700e-02,  5.98500e-03,  8.42800e-03,  1.40400e-02,  1.57600e-03, -3.22200e-03, -6.53600e-04,  4.11500e-04],
                           [-2.34400e-02,  6.32600e-04, -7.64000e-03,  3.79300e-03,  4.29500e-03, -4.30800e-04, -9.13700e-04,  5.10700e-05],
                           [-8.79500e-03, -8.90100e-03, -6.97900e-03, -1.39500e-03,  2.59600e-03,  1.03100e-03, -4.83700e-04, -2.54100e-04],
                           [-1.61600e-03, -8.92100e-03, -2.58000e-03, -1.41200e-03,  5.68200e-04,  8.92100e-04, -1.88500e-06, -2.34500e-04],
                           [-1.10000e-03, -7.48100e-04,  9.59700e-04, -4.79000e-04, -5.10400e-04,  2.57300e-04,  1.89900e-04, -6.81700e-05]])

# Reaction 2
chebyshev_reaction('aQOOHg (+ M) <=> aQOOHb (+ M)',
                   Tmin=180.0, Tmax=1500.0,
                   Pmin=(0.01, 'atm'), Pmax=(98.692, 'atm'),
                   coeffs=[[-3.90300e+00,  7.18900e-01, -4.71500e-01, -5.12900e-02,  1.60200e-04,  5.58100e-03,  2.22200e-03, -2.12100e-04],
                           [ 6.74800e+00,  1.68900e+00, -1.38500e-01, -4.39300e-02, -1.86900e-03, -2.77800e-03, -2.60000e-04,  1.05400e-03],
                           [ 5.86100e-01,  5.75800e-01,  4.67400e-02, -4.24400e-02, -1.17300e-03,  4.33200e-03, -1.05100e-03, -9.69200e-04],
                           [-1.50000e-01,  2.55000e-01,  8.65300e-02, -1.03200e-02, -1.33800e-02, -9.69000e-04,  1.85300e-03,  9.93800e-05],
                           [-9.17400e-02,  7.94500e-02,  5.94900e-02,  4.12100e-03, -4.71400e-03, -3.43100e-03, -4.31200e-05,  6.74100e-04],
                           [-5.46300e-02,  1.24600e-03,  3.03700e-02,  3.19800e-03, -5.29500e-04, -5.35500e-04, -8.39900e-04,  9.70700e-05],
                           [-2.40400e-02, -1.38000e-02,  9.48100e-03,  3.95500e-03, -1.03400e-03,  6.29300e-04, -1.43200e-04, -2.86700e-04],
                           [-1.38200e-02, -1.52100e-02, -1.57700e-03,  3.83900e-03, -3.73600e-04,  2.20600e-04,  3.19800e-04, -2.27800e-04],
                           [-7.14400e-03, -8.71600e-03, -3.58100e-03,  2.05500e-03,  3.47100e-04, -2.28600e-04,  2.85200e-04,  7.31500e-06],
                           [-2.34200e-03, -9.34100e-04, -1.39900e-03,  8.05800e-04,  4.10400e-04, -3.78300e-04,  2.56400e-05,  1.31900e-04]])

# Reaction 3
chebyshev_reaction('aRO2 (+ M) <=> aQOOHb (+ M)',
                   Tmin=180.0, Tmax=1500.0,
                   Pmin=(0.01, 'atm'), Pmax=(98.692, 'atm'),
                   coeffs=[[-4.49300e+00,  1.55300e+00, -2.67300e-01, -5.28900e-02,  1.87400e-02,  3.19600e-04, -8.51800e-04,  6.07800e-04],
                           [ 7.81100e+00,  1.58600e+00, -1.46300e-01, -4.63900e-02, -2.00600e-02,  7.21400e-03,  3.14600e-03, -1.08500e-03],
                           [ 9.53600e-01,  4.69100e-01,  3.21000e-02, -5.55600e-03, -1.51400e-02, -1.48400e-03,  1.12700e-03,  6.19000e-04],
                           [ 9.91400e-02,  5.66400e-02,  8.47600e-02, -1.11400e-02, -2.79600e-03, -1.55200e-03, -1.04800e-03,  5.61800e-04],
                           [-1.23700e-01, -2.89100e-02,  6.16000e-02,  9.82200e-04, -3.90500e-03, -2.15300e-03,  6.41600e-04, -1.67400e-05],
                           [-8.64600e-02, -2.67600e-02,  2.23000e-02,  1.19200e-02, -4.19500e-03, -1.90100e-03,  6.00600e-04,  6.32400e-05],
                           [-2.36800e-02, -3.93800e-03, -3.47000e-03,  8.64400e-03,  4.50300e-05, -8.02300e-04, -4.41300e-04,  1.99500e-04],
                           [ 6.06000e-03,  4.43000e-03, -1.08200e-02,  2.28700e-03,  3.00000e-03, -2.27200e-04, -6.26300e-04,  9.62300e-05],
                           [ 7.57500e-03,  2.93600e-03, -7.73800e-03, -6.95300e-04,  2.55100e-03,  1.12800e-04, -3.02000e-04, -6.33900e-05],
                           [ 6.37300e-04, -5.53600e-04, -1.25400e-03, -8.34400e-04,  2.47600e-04,  5.03400e-04, -1.51200e-05, -1.57400e-04]])

# Reaction 4
chebyshev_reaction('aadduct (+ M) <=> aQOOHb (+ M)',
                   Tmin=180.0, Tmax=1500.0,
                   Pmin=(0.01, 'atm'), Pmax=(98.692, 'atm'),
                   coeffs=[[-5.99200e+00,  2.56200e-01, -2.20100e-01, -1.12700e-02,  9.56500e-03, -3.81600e-03, -1.65600e-04,  1.23500e-03],
                           [ 2.88500e+00,  2.30900e+00,  3.18900e-02, -1.01300e-01, -1.21600e-02,  8.70500e-03,  2.17100e-03, -8.79200e-04],
                           [ 2.20900e-01,  1.12200e+00, -7.22500e-02, -4.40900e-02, -8.30400e-03,  3.11900e-03,  1.86000e-03, -7.08800e-04],
                           [ 4.96800e-01,  3.48300e-01, -8.69000e-02,  1.00700e-02,  2.83300e-04, -1.79800e-03, -1.13900e-03,  6.91800e-05],
                           [ 2.67000e-01, -1.33800e-01, -1.54000e-02,  4.58400e-02, -3.49700e-03, -5.90900e-03, -8.51000e-04,  1.10000e-03],
                           [ 2.87500e-02, -2.53200e-01,  5.87500e-02,  4.04100e-02, -1.16700e-02, -4.28300e-03,  7.80700e-04,  8.60200e-04],
                           [-5.13000e-02, -1.38100e-01,  8.27300e-02,  5.64100e-03, -1.22600e-02,  8.36700e-04,  1.51300e-03, -4.89600e-05],
                           [-4.38800e-02,  1.06700e-03,  5.29700e-02, -2.51000e-02, -3.07600e-03,  4.82600e-03,  3.10100e-04, -8.71900e-04],
                           [-1.69200e-02,  6.44200e-02,  1.43600e-03, -3.07600e-02,  9.46800e-03,  4.32000e-03, -1.95500e-03, -8.69600e-04],
                           [-4.11300e-03,  5.42600e-02, -3.33800e-02, -1.26700e-02,  1.48500e-02, -4.20500e-04, -2.52200e-03, -1.40500e-04]])

# Reaction 5
chebyshev_reaction('O2 + aR (+ M) <=> aQOOHb (+ M)',
                   Tmin=180.0, Tmax=1500.0,
                   Pmin=(0.01, 'atm'), Pmax=(98.692, 'atm'),
                   coeffs=[[ 3.70900e+00,  9.33000e-01, -4.10900e-01, -6.07500e-02,  3.61200e-03, -2.20800e-03, -5.34300e-04,  1.58500e-03],
                           [ 5.48300e-01,  5.51000e-01,  1.00100e-01, -5.13200e-02, -1.59500e-02,  8.50200e-03,  2.07900e-03, -1.91500e-03],
                           [ 4.32200e-01,  1.74000e-01,  7.88200e-02,  3.40800e-03, -1.41200e-02, -3.26800e-03,  2.49000e-03,  7.82200e-04],
                           [ 1.42000e-01,  8.14000e-02,  5.58600e-02,  1.93700e-02, -3.36500e-03, -5.78300e-03, -1.03600e-03,  8.95100e-04],
                           [ 3.13500e-02,  3.02800e-02,  2.45000e-02,  1.28500e-02,  1.77000e-03, -2.63200e-03, -1.61100e-03,  9.61400e-05],
                           [-5.34500e-03,  1.14200e-03,  3.84600e-03,  4.47400e-03,  2.34600e-03, -5.49800e-05, -7.69300e-04, -2.83800e-04],
                           [-9.86700e-03, -7.08300e-03, -2.82600e-03,  6.65100e-04,  1.59900e-03,  7.58400e-04, -1.15400e-04, -2.72800e-04],
                           [-9.76600e-03, -9.05100e-03, -4.55800e-03, -7.89700e-04,  8.12700e-04,  7.43400e-04,  1.78800e-04, -1.25400e-04],
                           [-4.79200e-03, -5.49400e-03, -2.98500e-03, -8.30700e-04,  2.18400e-04,  3.80100e-04,  1.75400e-04, -1.20300e-05],
                           [-1.30400e-03, -3.36000e-04, -3.21700e-04, -2.35800e-04, -8.51900e-05,  3.80900e-05,  6.57300e-05,  2.63400e-05]])
#  aQOOHb(+M) <=> aQOOH[O](+M)                         1.000e+00 0.000     0.000
#      TCHEB/ 180.000   1500.000 /
#      PCHEB/ 0.010     98.692   /
#      CHEB/ 10 8/
#      CHEB/ -6.448e+00   1.884e+00    -4.975e-01   -7.332e-02   1.193e-03   /
#      CHEB/ 8.545e-03    1.525e-03    -5.662e-04   7.163e+00    1.535e+00   /
#      CHEB/ 1.434e-01    -2.172e-02   -1.338e-02   -6.227e-03   1.127e-03   /
#      CHEB/ 1.170e-03    6.504e-01    2.382e-01    5.569e-02    -1.248e-02  /
#      CHEB/ 2.138e-03    1.499e-03    -8.878e-04   -1.644e-04   2.169e-01   /
#      CHEB/ 2.503e-02    6.633e-02    -5.741e-03   -1.277e-02   2.678e-04   /
#      CHEB/ 1.206e-03    3.278e-05    4.186e-03    1.089e-02    4.590e-02   /
#      CHEB/ 1.459e-02    -8.507e-03   -4.074e-03   6.125e-04    4.479e-04   /
#      CHEB/ -4.160e-02   5.985e-03    8.428e-03    1.404e-02    1.576e-03   /
#      CHEB/ -3.222e-03   -6.536e-04   4.115e-04    -2.163e-02   6.326e-04   /
#      CHEB/ -7.640e-03   3.793e-03    4.295e-03    -4.308e-04   -9.137e-04  /
#      CHEB/ 5.107e-05    -8.079e-03   -8.901e-03   -6.979e-03   -1.395e-03  /
#      CHEB/ 2.596e-03    1.031e-03    -4.837e-04   -2.541e-04   -1.422e-03  /
#      CHEB/ -8.921e-03   -2.580e-03   -1.412e-03   5.682e-04    8.921e-04   /
#      CHEB/ -1.885e-06   -2.345e-04   -1.093e-03   -7.481e-04   9.597e-04   /
#      CHEB/ -4.790e-04   -5.104e-04   2.573e-04    1.899e-04    -6.817e-05  /

# Reaction 6
chebyshev_reaction('aQOOHg (+ M) <=> aQOOH[O] (+ M)',
                   Tmin=180.0, Tmax=1500.0,
                   Pmin=(0.01, 'atm'), Pmax=(98.692, 'atm'),
                   coeffs=[[-2.86600e-01,  1.43500e+00, -1.93400e-01, -3.20100e-02,  2.75000e-04,  3.68700e-03,  1.61200e-03,  8.58700e-05],
                           [ 3.89200e+00,  1.49200e+00, -1.57400e-01, -1.97000e-02, -4.69400e-04,  1.67500e-03,  8.87400e-04,  1.52900e-04],
                           [ 5.95500e-01,  2.61000e-01, -1.07300e-02,  1.33200e-02,  4.34000e-03, -3.02100e-03, -1.79900e-03,  3.14900e-05],
                           [-1.21100e-01,  1.16700e-01,  2.87800e-02, -1.84400e-02, -3.32600e-04, -9.13000e-04, -7.53100e-04,  6.62600e-05],
                           [-1.92200e-01,  1.62500e-01,  2.69100e-02, -2.63100e-02, -4.40400e-03,  8.24800e-04,  7.21000e-05, -7.52400e-05],
                           [-5.52700e-02,  5.06800e-02,  1.74300e-02, -4.14200e-03, -2.96800e-03,  9.37200e-04, -4.88300e-05, -3.11600e-04],
                           [ 9.03200e-03, -3.93500e-02,  1.77700e-02,  7.01900e-03, -2.08600e-03,  6.52000e-04,  3.14300e-04, -2.05500e-04],
                           [-5.37600e-03, -2.64400e-02,  1.21000e-02,  3.35500e-03, -1.15400e-03,  1.91800e-04,  5.28500e-04, -8.79800e-06],
                           [-1.55500e-02,  5.95500e-03, -8.22100e-04,  1.12400e-03,  3.30300e-04, -3.82200e-04,  2.17000e-04,  7.69100e-05],
                           [-4.13600e-03,  5.30300e-03, -4.80100e-03,  2.27800e-03,  3.54200e-04, -6.01400e-04, -3.55700e-05,  1.27500e-04]])

# Reaction 7
chebyshev_reaction('aRO2 (+ M) <=> aQOOH[O] (+ M)',
                   Tmin=180.0, Tmax=1500.0,
                   Pmin=(0.01, 'atm'), Pmax=(98.692, 'atm'),
                   coeffs=[[-3.52800e+00,  2.96200e+00, -4.26300e-01, -7.04600e-02,  1.44100e-02,  8.29500e-03,  5.17100e-05, -1.03800e-03],
                           [ 9.36600e+00,  7.51400e-01,  2.39400e-01, -2.84100e-03, -2.43300e-02, -4.41200e-03,  1.38800e-03,  9.10400e-04],
                           [-5.97000e-01,  9.56600e-02,  7.29400e-02,  2.54700e-02, -2.22200e-03, -4.14500e-03, -3.69200e-04,  4.77000e-04],
                           [-2.52500e-01,  4.83300e-02,  1.99200e-02,  1.65900e-03, -2.76600e-03, -1.01800e-03,  4.67900e-04,  3.96500e-04],
                           [-8.40700e-02,  2.75700e-02,  8.58100e-03, -1.32200e-03, -2.30400e-03, -8.72600e-04, -2.14500e-05,  1.59500e-04],
                           [-9.36000e-03, -2.24100e-04,  2.83700e-03,  2.46300e-03,  3.90400e-04, -7.30200e-04, -5.74500e-04, -9.37200e-05],
                           [ 4.91800e-03, -7.61000e-03,  2.07300e-04,  3.11600e-03,  1.47900e-03, -2.75700e-04, -5.08200e-04, -1.40600e-04],
                           [ 8.17900e-03, -1.13100e-02, -1.69900e-03,  2.27600e-03,  1.52700e-03,  1.44900e-04, -2.82700e-04, -1.45100e-04],
                           [ 4.44100e-03, -6.61700e-03, -2.27900e-03,  6.62700e-04,  9.94400e-04,  3.34000e-04, -5.40300e-05, -9.89900e-05],
                           [-1.27900e-03, -1.39300e-04, -5.79500e-04, -5.68500e-04,  5.75200e-05,  3.28300e-04,  1.23100e-04, -4.42600e-05]])

# Reaction 8
chebyshev_reaction('aadduct (+ M) <=> aQOOH[O] (+ M)',
                   Tmin=180.0, Tmax=1500.0,
                   Pmin=(0.01, 'atm'), Pmax=(98.692, 'atm'),
                   coeffs=[[-7.35700e+00,  2.89500e+00, -4.39600e-01, -6.47100e-02,  1.71100e-02,  7.79700e-03, -3.93300e-04, -1.04600e-03],
                           [ 6.69200e+00,  7.71700e-01,  2.37100e-01, -7.09700e-03, -2.42700e-02, -3.77800e-03,  1.34200e-03,  8.48800e-04],
                           [-7.44900e-01,  1.39400e-01,  8.67900e-02,  2.38100e-02, -4.65400e-03, -4.28600e-03, -3.14600e-05,  5.19000e-04],
                           [-1.19600e-01,  6.54400e-02,  2.67200e-02,  1.94900e-03, -3.50800e-03, -9.92200e-04,  6.68700e-04,  3.82000e-04],
                           [ 3.52600e-02,  2.61900e-02,  7.99700e-03, -1.37700e-03, -2.13100e-03, -6.80700e-04,  5.97200e-05,  1.41500e-04],
                           [ 3.54100e-02, -6.20800e-03,  7.18300e-04,  2.43900e-03,  6.00400e-04, -7.31900e-04, -6.03400e-04, -7.53100e-05],
                           [ 1.08600e-02, -1.13800e-02, -8.19600e-04,  3.36900e-03,  1.58100e-03, -4.28000e-04, -5.84400e-04, -1.06900e-04],
                           [-6.01400e-03, -1.28300e-02, -1.54300e-03,  2.71000e-03,  1.54200e-03, -8.46700e-06, -3.40900e-04, -1.23000e-04],
                           [-9.37900e-03, -6.38800e-03, -1.89500e-03,  9.33800e-04,  1.02500e-03,  2.71600e-04, -8.29500e-05, -9.70300e-05],
                           [-2.43100e-03, -2.72400e-04, -4.14300e-04, -4.74900e-04,  1.03600e-04,  3.66000e-04,  1.19400e-04, -6.40600e-05]])

# Reaction 9
chebyshev_reaction('O2 + aR (+ M) <=> aQOOH[O] (+ M)',
                   Tmin=180.0, Tmax=1500.0,
                   Pmin=(0.01, 'atm'), Pmax=(98.692, 'atm'),
                   coeffs=[[ 5.43100e+00,  1.76700e+00, -1.45300e-01, -6.51400e-02, -1.90900e-02, -1.82300e-03,  1.45400e-03,  8.43000e-04],
                           [-3.47900e-01,  6.40000e-02,  4.07100e-02,  1.89900e-02,  6.01600e-03,  8.09200e-04, -3.69200e-04, -2.73900e-04],
                           [ 1.57500e-01,  2.66800e-02,  1.57500e-02,  6.16100e-03,  1.10000e-03, -4.08200e-04, -4.01600e-04, -1.38100e-04],
                           [ 8.74500e-02,  5.20300e-02,  2.87100e-02,  9.24600e-03,  8.15900e-05, -1.72000e-03, -9.47200e-04, -1.74000e-04],
                           [ 2.97800e-02,  3.01500e-02,  1.68700e-02,  5.70500e-03,  3.37600e-04, -8.38800e-04, -5.01000e-04, -1.06200e-04],
                           [-1.20500e-03,  4.01800e-03,  2.75000e-03,  1.46400e-03,  5.81000e-04,  1.35600e-04, -2.14200e-05, -4.38700e-05],
                           [-8.60100e-03, -5.93700e-03, -2.54000e-03, -6.57900e-05,  6.89400e-04,  4.69200e-04,  1.19400e-04, -4.00200e-05],
                           [-6.48200e-03, -8.71700e-03, -4.16300e-03, -6.88700e-04,  5.81300e-04,  5.09000e-04,  1.58300e-04, -2.51700e-05],
                           [-3.70100e-03, -5.72100e-03, -2.94500e-03, -7.34200e-04,  1.89100e-04,  2.66900e-04,  1.09800e-04,  5.42300e-06],
                           [ 1.10000e-03,  6.17100e-05, -4.19900e-05, -7.50500e-05, -3.72600e-05,  8.44500e-06,  2.50100e-05,  1.78400e-05]])
#  aQOOHb(+M) <=> aQOOHg(+M)                           1.000e+00 0.000     0.000
#      TCHEB/ 180.000   1500.000 /
#      PCHEB/ 0.010     98.692   /
#      CHEB/ 10 8/
#      CHEB/ -8.574e+00   7.189e-01    -4.715e-01   -5.129e-02   1.602e-04   /
#      CHEB/ 5.581e-03    2.222e-03    -2.121e-04   9.217e+00    1.689e+00   /
#      CHEB/ -1.385e-01   -4.393e-02   -1.869e-03   -2.778e-03   -2.600e-04  /
#      CHEB/ 1.054e-03    8.092e-01    5.758e-01    4.674e-02    -4.244e-02  /
#      CHEB/ -1.173e-03   4.332e-03    -1.051e-03   -9.692e-04   -5.584e-02  /
#      CHEB/ 2.550e-01    8.653e-02    -1.032e-02   -1.338e-02   -9.690e-04  /
#      CHEB/ 1.853e-03    9.938e-05    -6.354e-02   7.945e-02    5.949e-02   /
#      CHEB/ 4.121e-03    -4.714e-03   -3.431e-03   -4.312e-05   6.741e-04   /
#      CHEB/ -4.676e-02   1.246e-03    3.037e-02    3.198e-03    -5.295e-04  /
#      CHEB/ -5.355e-04   -8.399e-04   9.707e-05    -2.153e-02   -1.380e-02  /
#      CHEB/ 9.481e-03    3.955e-03    -1.034e-03   6.293e-04    -1.432e-04  /
#      CHEB/ -2.867e-04   -1.309e-02   -1.521e-02   -1.577e-03   3.839e-03   /
#      CHEB/ -3.736e-04   2.206e-04    3.198e-04    -2.278e-04   -7.122e-03  /
#      CHEB/ -8.716e-03   -3.581e-03   2.055e-03    3.471e-04    -2.286e-04  /
#      CHEB/ 2.852e-04    7.315e-06    -2.484e-03   -9.341e-04   -1.399e-03  /
#      CHEB/ 8.058e-04    4.104e-04    -3.783e-04   2.564e-05    1.319e-04   /
#  aQOOH[O](+M) <=> aQOOHg(+M)                         1.000e+00 0.000     0.000
#      TCHEB/ 180.000   1500.000 /
#      PCHEB/ 0.010     98.692   /
#      CHEB/ 10 8/
#      CHEB/ 8.584e-01    1.435e+00    -1.934e-01   -3.201e-02   2.750e-04   /
#      CHEB/ 3.687e-03    1.612e-03    8.587e-05    3.143e+00    1.492e+00   /
#      CHEB/ -1.574e-01   -1.970e-02   -4.694e-04   1.675e-03    8.874e-04   /
#      CHEB/ 1.529e-04    7.407e-01    2.610e-01    -1.073e-02   1.332e-02   /
#      CHEB/ 4.340e-03    -3.021e-03   -1.799e-03   3.149e-05    -7.297e-02  /
#      CHEB/ 1.167e-01    2.878e-02    -1.844e-02   -3.326e-04   -9.130e-04  /
#      CHEB/ -7.531e-04   6.626e-05    -1.793e-01   1.625e-01    2.691e-02   /
#      CHEB/ -2.631e-02   -4.404e-03   8.248e-04    7.210e-05    -7.524e-05  /