units(length='cm', time='s', quantity='mol', act_energy='kcal/mol')

ideal_gas(name='gas',
          elements="H D T C Ci O Oi N Ne Ar He Si S F Cl Br I X",
          species="""OH             bQOOH[O]       acetone
                     H2O            balkoxyketone  ibutenol
                     trisub_epoxy   bQOOHg         CH2O
                     galkene        O2             bR
                     bQOOHa         bRO2           disub_epoxy
                     HO2""",
          reactions='all',
          initial_state=state(temperature=300.0, pressure=OneAtm))

#-------------------------------------------------------------------------------
# Element data
#-------------------------------------------------------------------------------

element(symbol='Ci', atomic_mass=13.003)
element(symbol='D', atomic_mass=2.014)
element(symbol='Oi', atomic_mass=18.0)
element(symbol='T', atomic_mass=3.016)
element(symbol='X', atomic_mass=195.083)
#-------------------------------------------------------------------------------
# Species data
#-------------------------------------------------------------------------------

species(name='OH',
        atoms='H:1 O:1',
        thermo=(NASA([10.00, 984.14],
                     [ 3.49686242E+00,  1.83973160E-04, -9.97634499E-07,
                       1.56942783E-09, -6.10128175E-13,  3.41673934E+03,
                       1.48093120E+00]),
                NASA([984.14, 3000.00],
                     [ 3.45221464E+00, -2.95124034E-04,  7.39418622E-07,
                      -2.89309866E-10,  3.53041498E-14,  3.45751599E+03,
                       1.85813897E+00])))

species(name='bQOOH[O]',
        atoms='C:4 H:9 O:3',
        thermo=(NASA([10.00, 338.69],
                     [ 3.60915854E+00,  3.39069566E-02,  2.22227265E-04,
                      -8.23527342E-07,  8.56246333E-10, -2.26774630E+04,
                       1.23284605E+01]),
                NASA([338.69, 3000.00],
                     [ 5.03198881E+00,  5.46235886E-02, -3.56935806E-05,
                       1.12371751E-08, -1.35390171E-12, -2.29890457E+04,
                       3.82760723E+00])))

species(name='acetone',
        atoms='C:3 H:6 O:1',
        thermo=(NASA([10.00, 414.35],
                     [ 3.73496166E+00,  3.05743218E-02, -1.26253585E-04,
                       3.66080978E-07, -3.31430437E-10, -2.49478906E+04,
                       8.24936012E+00]),
                NASA([414.35, 3000.00],
                     [ 1.70010292E-01,  3.28431468E-02, -1.80960132E-05,
                       4.82960690E-09, -5.02388538E-13, -2.43765075E+04,
                       2.56372653E+01])))

species(name='H2O',
        atoms='H:2 O:1',
        thermo=(NASA([10.00, 773.84],
                     [ 4.00473541E+00, -2.39729134E-04,  8.11862955E-07,
                       1.47891862E-09, -1.19783539E-12, -3.03533807E+04,
                      -9.96254147E-02]),
                NASA([773.84, 3000.00],
                     [ 3.52133374E+00,  1.05377009E-03,  6.40722099E-07,
                      -3.86240235E-10,  5.49243294E-14, -3.02424794E+04,
                       2.34173094E+00])))

species(name='balkoxyketone',
        atoms='C:4 H:7 O:2',
        thermo=(NASA([10.00, 269.93],
                     [ 3.81931151E+00,  1.68519318E-02,  2.42742224E-04,
                      -9.64821161E-07,  1.18509335E-09, -2.09033020E+04,
                       1.20521854E+01]),
                NASA([269.93, 3000.00],
                     [ 3.57555944E+00,  4.28868089E-02, -2.65390705E-05,
                       7.99659117E-09, -9.32983470E-13, -2.09718301E+04,
                       1.13957990E+01])))

species(name='ibutenol',
        atoms='C:4 H:8 O:1',
        thermo=(NASA([10.00, 135.97],
                     [ 3.95714996E+00,  5.72646980E-03,  4.63611760E-04,
                      -3.04137514E-06,  6.85019471E-09, -2.28934806E+04,
                       8.21931848E+00]),
                NASA([135.97, 3000.00],
                     [ 3.32467612E+00,  3.69033556E-02, -1.89960416E-05,
                       4.73417677E-09, -4.59705291E-13, -2.28879020E+04,
                       9.58133237E+00])))

species(name='trisub_epoxy',
        atoms='C:4 H:8 O:2',
        thermo=(NASA([10.00, 209.19],
                     [ 3.75295042E+00,  2.37546930E-02,  1.26610110E-04,
                      -4.78364365E-07,  5.79468168E-10, -4.12988256E+04,
                       1.12739684E+01]),
                NASA([209.19, 3000.00],
                     [ 2.64185254E+00,  4.50006531E-02, -2.57361066E-05,
                       7.15266054E-09, -7.72980731E-13, -4.12523401E+04,
                       1.48960343E+01])))

species(name='bQOOHg',
        atoms='C:4 H:9 O:3',
        thermo=(NASA([10.00, 441.09],
                     [ 3.56595280E+00,  3.36073467E-02,  2.03462772E-04,
                      -5.98977617E-07,  4.83271168E-10, -2.25818119E+04,
                       1.33537891E+01]),
                NASA([441.09, 3000.00],
                     [ 6.09031192E+00,  5.80517622E-02, -4.06392697E-05,
                       1.32574026E-08, -1.62501077E-12, -2.32649973E+04,
                      -1.97849715E+00])))

species(name='CH2O',
        atoms='C:1 H:2 O:1',
        thermo=(NASA([10.00, 601.31],
                     [ 4.03190845E+00, -1.93233367E-03,  8.89743345E-06,
                       2.98105926E-09, -7.90813886E-12, -1.42276270E+04,
                       3.47574660E+00]),
                NASA([601.31, 3000.00],
                     [ 1.40134195E+00,  9.48858016E-03, -4.43088317E-06,
                       9.48452194E-10, -7.43790219E-14, -1.38013869E+04,
                       1.57423780E+01])))

species(name='galkene',
        atoms='C:4 H:8 O:1',
        thermo=(NASA([10.00, 383.47],
                     [ 3.84035604E+00,  1.20378740E-02,  1.87486319E-04,
                      -5.44759148E-07,  4.80711015E-10, -2.02230447E+04,
                       1.02570291E+01]),
                NASA([383.47, 3000.00],
                     [ 4.00413385E+00,  3.79025144E-02, -2.15435710E-05,
                       6.15213311E-09, -6.97446345E-13, -2.04383341E+04,
                       6.98052628E+00])))

species(name='O2',
        atoms='O:2',
        thermo=(NASA([10.00, 605.96],
                     [ 3.50743498E+00, -4.43860349E-04,  1.45938058E-06,
                       1.61509333E-09, -2.32050052E-12, -9.24756224E+02,
                       4.72183634E+00]),
                NASA([605.96, 3000.00],
                     [ 2.87462882E+00,  2.17840991E-03, -1.18262921E-06,
                       2.86910493E-10, -2.53297146E-14, -8.19517838E+02,
                       7.69331810E+00])))

species(name='bR',
        atoms='C:4 H:9 O:1',
        thermo=(NASA([10.00, 483.43],
                     [ 3.38164846E+00,  5.97142637E-02, -1.58320095E-04,
                       3.04908893E-07, -2.13091806E-10, -1.38069398E+04,
                       1.09226843E+01]),
                NASA([483.43, 3000.00],
                     [ 2.33428824E+00,  4.22094427E-02, -2.28029290E-05,
                       6.04614564E-09, -6.30240159E-13, -1.33998578E+04,
                       1.83772893E+01])))

species(name='bQOOHa',
        atoms='C:4 H:9 O:3',
        thermo=(NASA([10.00, 390.53],
                     [ 3.54969236E+00,  3.76592474E-02,  1.76622653E-04,
                      -5.98063750E-07,  5.45069236E-10, -2.69471341E+04,
                       1.31518761E+01]),
                NASA([390.53, 3000.00],
                     [ 5.33564209E+00,  5.64935715E-02, -3.83214298E-05,
                       1.22990604E-08, -1.49549987E-12, -2.73697441E+04,
                       2.59015836E+00])))

species(name='bRO2',
        atoms='C:4 H:9 O:3',
        thermo=(NASA([10.00, 461.39],
                     [ 3.53964713E+00,  3.88723795E-02,  9.57420148E-05,
                      -2.80380499E-07,  2.09647462E-10, -3.36011140E+04,
                       1.18803618E+01]),
                NASA([461.39, 3000.00],
                     [ 3.47201723E+00,  6.00510247E-02, -4.00567321E-05,
                       1.25663813E-08, -1.49496682E-12, -3.38140607E+04,
                       9.77903975E+00])))

species(name='disub_epoxy',
        atoms='C:4 H:8 O:2',
        thermo=(NASA([10.00, 549.41],
                     [ 3.89863211E+00,  5.97532637E-03,  1.66685676E-04,
                      -3.10743768E-07,  1.78330192E-10, -3.81207660E+04,
                       1.13847308E+01]),
                NASA([549.41, 3000.00],
                     [-6.40277648E-01,  6.05960003E-02, -4.13427220E-05,
                       1.31555461E-08, -1.57685017E-12, -3.79476492E+04,
                       2.76005436E+01])))

species(name='HO2',
        atoms='H:1 O:2',
        thermo=(NASA([10.00, 891.11],
                     [ 4.02887004E+00, -1.75769289E-03,  1.08726004E-05,
                      -1.13812972E-08,  3.90113097E-12,  4.95165001E+02,
                       4.69302008E+00]),
                NASA([891.11, 3000.00],
                     [ 3.06571044E+00,  4.28505005E-03, -2.19325920E-06,
                       5.58882699E-10, -5.61246669E-14,  5.98557610E+02,
                       8.84564156E+00])))

#-------------------------------------------------------------------------------
# Reaction data
#-------------------------------------------------------------------------------

# Reaction 1
chebyshev_reaction('bQOOHg (+ M) <=> bRO2 (+ M)',
                   Tmin=180.0, Tmax=1500.0,
                   Pmin=(0.01, 'atm'), Pmax=(98.692, 'atm'),
                   coeffs=[[ 3.83500e+00,  5.00300e-01, -9.14700e-02, -1.10500e-03,  1.50800e-03,  1.31700e-04, -2.23300e-05, -1.79500e-05],
                           [ 2.36000e+00,  8.99800e-01, -1.54000e-01, -5.73700e-03,  3.04000e-03,  3.09000e-04, -6.13600e-05, -3.17700e-05],
                           [ 3.80500e-01,  6.50700e-01, -8.63600e-02, -1.24400e-02,  2.66900e-03,  4.53300e-04, -9.23500e-05, -2.63300e-05],
                           [-2.50000e-01,  3.71600e-01, -2.04600e-02, -1.51800e-02,  1.36800e-03,  6.38500e-04, -9.33000e-05, -3.10300e-05],
                           [-2.68300e-01,  1.62200e-01,  1.52600e-02, -1.13400e-02, -4.03500e-04,  6.95500e-04, -3.52300e-05, -4.48600e-05],
                           [-1.34400e-01,  5.24400e-02,  2.03600e-02, -4.53400e-03, -1.52300e-03,  5.10800e-04,  5.68500e-05, -5.18400e-05],
                           [-4.62400e-02,  1.44600e-02,  1.16600e-02,  2.74500e-04, -1.47000e-03,  1.88000e-04,  1.20600e-04, -3.86200e-05],
                           [-1.88500e-02,  6.54900e-03,  3.86800e-03,  1.53600e-03, -7.59900e-04, -5.76000e-05,  1.19200e-04, -1.05600e-05],
                           [-1.39800e-02,  3.87200e-03,  1.06900e-03,  9.11000e-04, -1.78200e-04, -1.27400e-04,  7.32200e-05,  1.41400e-05],
                           [-9.29100e-03,  6.33500e-04,  7.45900e-04,  3.18000e-04,  5.74200e-06, -9.22400e-05,  2.67600e-05,  2.34100e-05]])

# Reaction 2
chebyshev_reaction('bQOOHa (+ M) <=> bRO2 (+ M)',
                   Tmin=180.0, Tmax=1500.0,
                   Pmin=(0.01, 'atm'), Pmax=(98.692, 'atm'),
                   coeffs=[[ 3.66000e+00,  7.55500e-01, -1.18500e-01, -1.06400e-02,  1.74800e-03,  2.67000e-04,  3.09700e-05,  3.95200e-05],
                           [ 2.96200e+00,  1.19300e+00, -1.42100e-01, -2.73600e-02,  1.82500e-04,  1.06800e-03,  1.93500e-04,  3.21400e-05],
                           [ 1.64100e-01,  5.74000e-01,  1.47800e-02, -2.64000e-02, -6.49500e-03,  1.15700e-03,  5.17200e-04,  8.35100e-06],
                           [-3.44900e-01,  1.63700e-01,  6.61200e-02, -6.63200e-03, -8.38800e-03, -7.17500e-04,  6.05100e-04,  1.42500e-04],
                           [-2.06200e-01,  5.27000e-02,  2.80600e-02,  9.73900e-03, -3.14300e-03, -2.43800e-03,  4.68200e-05,  2.66400e-04],
                           [-8.70000e-02,  4.92600e-02, -5.42700e-03,  9.12100e-03,  2.23800e-03, -1.73400e-03, -6.21800e-04,  1.29600e-04],
                           [-4.89200e-02,  3.52600e-02, -7.40100e-03,  1.91800e-03,  2.90100e-03,  7.80900e-05, -6.28600e-04, -1.32600e-04],
                           [-3.09000e-02,  1.39500e-02, -2.85800e-04, -1.60900e-03,  1.11400e-03,  8.45300e-04, -1.57600e-04, -2.08300e-04],
                           [-1.55600e-02,  3.44100e-03,  2.22500e-03, -1.52200e-03, -5.80500e-05,  5.41800e-04,  1.56800e-04, -9.02900e-05],
                           [-6.54700e-03,  7.90200e-04,  1.60300e-03, -6.18800e-04, -3.19500e-04,  1.31700e-04,  1.65000e-04,  1.83600e-05]])

# Reaction 3
chebyshev_reaction('bQOOH[O] (+ M) <=> bRO2 (+ M)',
                   Tmin=180.0, Tmax=1500.0,
                   Pmin=(0.01, 'atm'), Pmax=(98.692, 'atm'),
                   coeffs=[[ 8.95400e+00,  1.05700e+00, -2.60300e-01,  7.52700e-03,  9.16900e-03, -1.28200e-03, -5.27300e-04,  1.65600e-04],
                           [-1.27800e-01,  9.04600e-01, -2.60000e-02, -6.67000e-02,  7.12400e-04,  6.86200e-03, -4.32700e-04, -7.64500e-04],
                           [-4.33500e-01,  3.24900e-01,  6.14600e-02, -1.27400e-02, -1.69300e-02,  6.66300e-04,  2.64400e-03, -3.97400e-05],
                           [-2.80000e-01,  1.64100e-01,  2.84000e-02,  1.02700e-02, -7.53800e-03, -4.37600e-03,  9.68900e-04,  9.36200e-04],
                           [-1.77400e-01,  1.10500e-01,  6.24700e-03,  7.09500e-03,  9.02400e-04, -2.95000e-03, -9.24200e-04,  5.54700e-04],
                           [-1.02000e-01,  5.71300e-02,  5.43400e-03,  1.85600e-03,  1.91400e-03, -4.30500e-04, -9.47900e-04, -1.17600e-04],
                           [-5.96700e-02,  3.26100e-02,  1.94600e-03, -5.84800e-05,  1.44700e-03,  4.54800e-04, -4.23000e-04, -2.82300e-04],
                           [-2.69600e-02,  8.42800e-03,  3.31100e-03, -3.08000e-04,  2.45200e-04,  5.70400e-04,  3.22600e-05, -2.08100e-04],
                           [-1.60300e-02,  6.65800e-03, -1.02200e-04, -1.15200e-04,  2.09700e-04,  2.42500e-04,  1.11100e-04, -4.34800e-05],
                           [-5.01400e-03, -1.61600e-03,  1.28000e-03, -4.33000e-05, -2.14900e-04,  1.34600e-04,  1.27800e-04,  6.86900e-06]])

# Reaction 4
chebyshev_reaction('O2 + bR (+ M) <=> bRO2 (+ M)',
                   Tmin=180.0, Tmax=1500.0,
                   Pmin=(0.01, 'atm'), Pmax=(98.692, 'atm'),
                   coeffs=[[ 1.28900e+01,  3.71500e-01, -6.68100e-02,  1.36100e-03, -2.73500e-04,  2.20800e-04, -6.36500e-06,  3.03700e-06],
                           [-6.92900e-01,  6.15400e-01, -9.01300e-02, -5.91500e-03,  9.04300e-04,  1.15100e-04,  4.88800e-05, -7.25500e-07],
                           [-3.73800e-01,  3.64400e-01, -2.00100e-02, -1.28300e-02,  4.92200e-04,  2.08100e-04,  3.18500e-05,  3.70500e-06],
                           [-2.17600e-01,  1.62400e-01,  1.64400e-02, -8.74500e-03, -1.29600e-03,  2.09600e-04,  6.31800e-05,  5.20400e-07],
                           [-1.17400e-01,  6.29800e-02,  1.77500e-02, -1.66400e-03, -1.67800e-03, -1.16200e-04,  7.59700e-05,  1.13800e-05],
                           [-6.82700e-02,  2.96300e-02,  8.72000e-03,  1.34900e-03, -7.35400e-04, -2.91800e-04,  4.92200e-06,  2.06300e-05],
                           [-4.28300e-02,  1.76800e-02,  3.71100e-03,  9.54900e-04,  1.63600e-05, -1.62400e-04, -5.43800e-05,  7.32800e-06],
                           [-2.55500e-02,  8.59500e-03,  2.81100e-03,  1.69200e-04,  1.02000e-04,  1.46100e-06, -3.97600e-05, -9.70200e-06],
                           [-1.28800e-02,  1.33500e-03,  2.50800e-03,  9.19400e-05, -3.11400e-05,  3.02700e-05, -6.41300e-07, -9.97600e-06],
                           [-4.81800e-03, -2.34500e-03,  1.55600e-03,  2.91800e-04, -4.93400e-05, -7.43700e-06,  1.04200e-05, -9.12900e-07]])
#  bRO2(+M) <=> bQOOHg(+M)                             1.000e+00 0.000     0.000
#      TCHEB/ 180.000   1500.000 /
#      PCHEB/ 0.010     98.692   /
#      CHEB/ 10 8/
#      CHEB/ -1.010e+01   5.003e-01    -9.147e-02   -1.105e-03   1.508e-03   /
#      CHEB/ 1.317e-04    -2.233e-05   -1.795e-05   1.445e+01    8.998e-01   /
#      CHEB/ -1.540e-01   -5.737e-03   3.040e-03    3.090e-04    -6.136e-05  /
#      CHEB/ -3.177e-05   5.263e-01    6.507e-01    -8.636e-02   -1.244e-02  /
#      CHEB/ 2.669e-03    4.533e-04    -9.235e-05   -2.633e-05   -2.129e-01  /
#      CHEB/ 3.716e-01    -2.046e-02   -1.518e-02   1.368e-03    6.385e-04   /
#      CHEB/ -9.330e-05   -3.103e-05   -2.625e-01   1.622e-01    1.526e-02   /
#      CHEB/ -1.134e-02   -4.035e-04   6.955e-04    -3.523e-05   -4.486e-05  /
#      CHEB/ -1.345e-01   5.244e-02    2.036e-02    -4.534e-03   -1.523e-03  /
#      CHEB/ 5.108e-04    5.685e-05    -5.184e-05   -4.682e-02   1.446e-02   /
#      CHEB/ 1.166e-02    2.745e-04    -1.470e-03   1.880e-04    1.206e-04   /
#      CHEB/ -3.862e-05   -1.931e-02   6.549e-03    3.868e-03    1.536e-03   /
#      CHEB/ -7.599e-04   -5.760e-05   1.192e-04    -1.056e-05   -1.430e-02  /
#      CHEB/ 3.872e-03    1.069e-03    9.110e-04    -1.782e-04   -1.274e-04  /
#      CHEB/ 7.322e-05    1.414e-05    -9.477e-03   6.335e-04    7.459e-04   /
#      CHEB/ 3.180e-04    5.742e-06    -9.224e-05   2.676e-05    2.341e-05   /

# Reaction 5
chebyshev_reaction('bQOOHa (+ M) <=> bQOOHg (+ M)',
                   Tmin=180.0, Tmax=1500.0,
                   Pmin=(0.01, 'atm'), Pmax=(98.692, 'atm'),
                   coeffs=[[-7.77200e+00, -3.05000e-01, -3.09800e-01,  2.32300e-05,  4.00600e-03, -5.27000e-04,  1.30000e-04,  4.27600e-05],
                           [ 9.88400e+00,  2.04100e+00, -1.50900e-01, -6.88300e-02,  7.25100e-04,  3.97700e-03, -2.99800e-04, -2.06500e-04],
                           [ 3.38400e-01,  8.28200e-01,  3.35800e-02, -1.22400e-02, -1.34900e-02, -1.10400e-03,  1.39200e-03,  1.17200e-04],
                           [-4.54000e-01,  3.33500e-01,  1.68100e-02,  8.17100e-03,  1.43400e-03, -4.20700e-03, -7.30400e-04,  5.45100e-04],
                           [-2.22900e-01,  1.19900e-01,  1.68400e-02, -5.15900e-03,  5.88300e-03,  9.02200e-04, -1.60700e-03, -3.16700e-04],
                           [-2.38100e-02,  2.54300e-02,  1.80900e-02, -5.56500e-03, -2.02600e-04,  2.77300e-03,  3.68300e-05, -6.16400e-04],
                           [ 1.75000e-02,  2.26900e-03,  9.38300e-03, -4.79700e-05, -2.57300e-03,  8.68900e-04,  8.60100e-04, -1.05600e-04],
                           [ 3.26700e-03,  1.36800e-03,  3.85700e-03,  1.18700e-03, -1.29400e-03, -4.16000e-04,  4.47200e-04,  2.07200e-04],
                           [-8.40200e-03,  6.19300e-05,  2.59000e-03,  4.90500e-04, -2.62500e-04, -3.98300e-04,  1.04000e-05,  1.44000e-04],
                           [-4.86000e-03, -3.15500e-03,  1.85800e-03,  4.08800e-04, -1.12500e-04, -1.39900e-04, -6.31200e-05,  2.37400e-05]])

# Reaction 6
chebyshev_reaction('bQOOH[O] (+ M) <=> bQOOHg (+ M)',
                   Tmin=180.0, Tmax=1500.0,
                   Pmin=(0.01, 'atm'), Pmax=(98.692, 'atm'),
                   coeffs=[[-1.60700e+00, -1.59500e-01, -3.75900e-01, -9.42400e-03,  1.72600e-02, -5.72200e-04, -2.10800e-03,  2.97800e-04],
                           [ 5.32000e+00,  1.67900e+00, -7.01400e-02, -5.72000e-02, -1.61200e-02,  6.65900e-03,  2.47200e-03, -1.18200e-03],
                           [ 2.88700e-01,  8.44100e-01, -8.11000e-04, -2.96600e-03, -1.01600e-02, -5.17000e-03,  1.70100e-03,  1.13800e-03],
                           [-4.56500e-01,  3.75100e-01,  2.19000e-02, -3.26200e-03,  3.05900e-03, -2.97800e-03, -1.65800e-03,  5.41500e-04],
                           [-2.39200e-01,  1.26100e-01,  2.73900e-02, -5.93300e-03,  3.13200e-03,  1.32400e-03, -1.33200e-03, -5.58600e-04],
                           [-2.70000e-02,  2.23100e-02,  1.74000e-02, -9.48200e-04, -4.15900e-04,  1.60600e-03,  1.42700e-04, -4.74000e-04],
                           [ 1.03700e-02,  1.41600e-02,  5.05700e-03, -5.89900e-04, -7.73800e-04,  9.11000e-04,  4.13700e-04, -1.22500e-04],
                           [ 3.45200e-03,  2.34300e-03,  3.37400e-03,  6.73000e-04, -1.12500e-03, -4.30800e-05,  4.51300e-04,  1.03100e-04],
                           [-1.27100e-02,  5.45300e-03,  1.71300e-03, -3.68000e-04, -2.71300e-04, -1.14900e-04,  6.49600e-05,  9.54100e-05],
                           [-2.75700e-03, -5.82000e-03,  2.09500e-03,  1.09200e-03, -4.91000e-04, -2.91500e-04,  8.03600e-05,  6.67400e-05]])

# Reaction 7
chebyshev_reaction('O2 + bR (+ M) <=> bQOOHg (+ M)',
                   Tmin=180.0, Tmax=1500.0,
                   Pmin=(0.01, 'atm'), Pmax=(98.692, 'atm'),
                   coeffs=[[ 6.03300e+00, -9.86400e-01, -1.93000e-01,  8.62500e-03, -1.25700e-03,  1.06700e-03, -4.48000e-05, -6.29500e-05],
                           [ 1.73700e+00,  1.51300e+00, -2.05100e-01, -2.64100e-02,  7.28700e-03,  1.19700e-04,  1.48800e-04, -9.68700e-05],
                           [ 1.49000e-01,  6.99800e-01, -3.76900e-03, -3.96300e-02,  3.27000e-03,  1.66800e-03, -2.20700e-04, -5.10100e-05],
                           [-1.31100e-01,  1.89900e-01,  5.66300e-02, -1.96800e-02, -2.79000e-03,  1.93800e-03,  2.03400e-06, -1.34400e-04],
                           [-4.08700e-02,  2.42600e-02,  3.72800e-02, -3.46400e-03, -3.66500e-03,  1.14700e-03,  2.91100e-04, -1.54400e-04],
                           [ 2.00200e-02,  3.95800e-03,  1.75400e-02,  1.87600e-04, -2.67300e-03,  5.03000e-04,  4.43400e-04, -9.24300e-05],
                           [ 1.64700e-02,  4.61400e-03,  1.05100e-02,  9.51600e-04, -2.17100e-03, -6.11300e-05,  4.57500e-04,  2.22600e-05],
                           [ 2.84900e-03, -3.73100e-04,  6.53300e-03,  2.17500e-03, -1.37600e-03, -5.35000e-04,  2.83500e-04,  1.14700e-04],
                           [-4.94000e-03, -4.75300e-03,  2.30900e-03,  2.41100e-03, -3.03200e-04, -5.82600e-04,  3.45200e-05,  1.19400e-04],
                           [-1.69500e-03, -5.33900e-03, -2.63900e-04,  1.32500e-03,  3.76700e-04, -3.26400e-04, -9.40800e-05,  6.22200e-05]])
#  bRO2(+M) <=> bQOOHa(+M)                             1.000e+00 0.000     0.000
#      TCHEB/ 180.000   1500.000 /
#      PCHEB/ 0.010     98.692   /
#      CHEB/ 10 8/
#      CHEB/ -4.482e+00   7.555e-01    -1.185e-01   -1.064e-02   1.748e-03   /
#      CHEB/ 2.670e-04    3.097e-05    3.952e-05    1.027e+01    1.193e+00   /
#      CHEB/ -1.421e-01   -2.736e-02   1.825e-04    1.068e-03    1.935e-04   /
#      CHEB/ 3.214e-05    2.191e-01    5.740e-01    1.478e-02    -2.640e-02  /
#      CHEB/ -6.495e-03   1.157e-03    5.172e-04    8.351e-06    -3.436e-01  /
#      CHEB/ 1.637e-01    6.612e-02    -6.632e-03   -8.388e-03   -7.175e-04  /
#      CHEB/ 6.051e-04    1.425e-04    -2.110e-01   5.270e-02    2.806e-02   /
#      CHEB/ 9.739e-03    -3.143e-03   -2.438e-03   4.682e-05    2.664e-04   /
#      CHEB/ -8.976e-02   4.926e-02    -5.427e-03   9.121e-03    2.238e-03   /
#      CHEB/ -1.734e-03   -6.218e-04   1.296e-04    -5.027e-02   3.526e-02   /
#      CHEB/ -7.401e-03   1.918e-03    2.901e-03    7.809e-05    -6.286e-04  /
#      CHEB/ -1.326e-04   -3.162e-02   1.395e-02    -2.858e-04   -1.609e-03  /
#      CHEB/ 1.114e-03    8.453e-04    -1.576e-04   -2.083e-04   -1.591e-02  /
#      CHEB/ 3.441e-03    2.225e-03    -1.522e-03   -5.805e-05   5.418e-04   /
#      CHEB/ 1.568e-04    -9.029e-05   -6.667e-03   7.902e-04    1.603e-03   /
#      CHEB/ -6.188e-04   -3.195e-04   1.317e-04    1.650e-04    1.836e-05   /
#  bQOOHg(+M) <=> bQOOHa(+M)                           1.000e+00 0.000     0.000
#      TCHEB/ 180.000   1500.000 /
#      PCHEB/ 0.010     98.692   /
#      CHEB/ 10 8/
#      CHEB/ -1.979e+00   -3.050e-01   -3.098e-01   2.323e-05    4.006e-03   /
#      CHEB/ -5.270e-04   1.300e-04    4.276e-05    5.102e+00    2.041e+00   /
#      CHEB/ -1.509e-01   -6.883e-02   7.251e-04    3.977e-03    -2.998e-04  /
#      CHEB/ -2.065e-04   2.477e-01    8.282e-01    3.358e-02    -1.224e-02  /
#      CHEB/ -1.349e-02   -1.104e-03   1.392e-03    1.172e-04    -4.898e-01  /
#      CHEB/ 3.335e-01    1.681e-02    8.171e-03    1.434e-03    -4.207e-03  /
#      CHEB/ -7.304e-04   5.451e-04    -2.334e-01   1.199e-01    1.684e-02   /
#      CHEB/ -5.159e-03   5.883e-03    9.022e-04    -1.607e-03   -3.167e-04  /
#      CHEB/ -2.644e-02   2.543e-02    1.809e-02    -5.565e-03   -2.026e-04  /
#      CHEB/ 2.773e-03    3.683e-05    -6.164e-04   1.674e-02    2.269e-03   /
#      CHEB/ 9.383e-03    -4.797e-05   -2.573e-03   8.689e-04    8.601e-04   /
#      CHEB/ -1.056e-04   2.996e-03    1.368e-03    3.857e-03    1.187e-03   /
#      CHEB/ -1.294e-03   -4.160e-04   4.472e-04    2.072e-04    -8.427e-03  /
#      CHEB/ 6.193e-05    2.590e-03    4.905e-04    -2.625e-04   -3.983e-04  /
#      CHEB/ 1.040e-05    1.440e-04    -4.793e-03   -3.155e-03   1.858e-03   /
#      CHEB/ 4.088e-04    -1.125e-04   -1.399e-04   -6.312e-05   2.374e-05   /

# Reaction 8
chebyshev_reaction('bQOOH[O] (+ M) <=> bQOOHa (+ M)',
                   Tmin=180.0, Tmax=1500.0,
                   Pmin=(0.01, 'atm'), Pmax=(98.692, 'atm'),
                   coeffs=[[ 2.50900e+00,  1.99100e-01, -4.65700e-01, -6.02400e-04,  1.62600e-02, -1.36900e-03, -1.63400e-03,  3.42300e-04],
                           [ 2.59100e+00,  1.90000e+00, -1.06100e-02, -1.09500e-01, -1.04100e-02,  9.15100e-03,  1.29800e-03, -1.16200e-03],
                           [-2.20400e-01,  5.89400e-01,  1.58800e-01, -1.48500e-02, -2.89100e-02, -2.48600e-03,  3.52700e-03,  7.14600e-04],
                           [-4.44100e-01,  2.16900e-01,  6.40100e-02,  2.79800e-02, -8.64000e-03, -7.70500e-03, -3.98900e-05,  1.22800e-03],
                           [-2.20200e-01,  1.07600e-01,  6.80900e-03,  1.70800e-02,  5.77200e-03, -3.41800e-03, -2.09000e-03,  1.69000e-04],
                           [-4.99700e-02,  3.86000e-02,  2.43700e-04,  3.16500e-03,  5.58600e-03,  7.26600e-04, -1.24300e-03, -5.06500e-04],
                           [-2.22200e-03,  1.90600e-02, -2.86100e-04, -2.46200e-03,  2.19400e-03,  1.81600e-03, -1.61500e-04, -4.49100e-04],
                           [ 3.75600e-03,  1.56800e-03,  1.75300e-03, -9.24300e-04, -6.16800e-04,  8.64600e-04,  4.88600e-04, -1.19700e-04],
                           [-9.53600e-03,  6.34600e-03, -5.57000e-04, -5.69500e-04, -3.87900e-04,  1.15400e-04,  2.61200e-04,  7.67900e-05],
                           [-3.91900e-03, -2.22100e-03,  1.00600e-03,  4.31200e-04, -4.75000e-04, -2.20200e-04,  1.43200e-04,  9.39500e-05]])

# Reaction 9
chebyshev_reaction('O2 + bR (+ M) <=> bQOOHa (+ M)',
                   Tmin=180.0, Tmax=1500.0,
                   Pmin=(0.01, 'atm'), Pmax=(98.692, 'atm'),
                   coeffs=[[ 8.63200e+00, -1.87900e-01, -3.32800e-01, -2.73900e-02,  1.55300e-02,  2.82200e-03, -2.41700e-03, -3.36400e-04],
                           [ 2.40000e-01,  1.24500e+00,  4.44600e-02, -4.04600e-02, -2.54200e-02,  1.36100e-03,  4.38200e-03, -5.63100e-05],
                           [-2.73500e-01,  5.05700e-01,  6.23500e-02,  1.81300e-03, -6.97100e-03, -5.90100e-03, -2.25700e-04,  1.21200e-03],
                           [-2.47400e-01,  1.41000e-01,  4.79900e-02,  6.34900e-03,  1.48900e-03, -1.85600e-03, -1.66400e-03, -9.89700e-05],
                           [-7.94600e-02,  2.04200e-02,  2.31000e-02,  5.03400e-03,  1.70300e-03,  5.81300e-04, -5.63800e-04, -5.07400e-04],
                           [ 8.88800e-03,  2.94800e-03,  6.75000e-03,  2.55400e-03,  7.91700e-04,  6.39900e-04,  1.71700e-04, -1.88300e-04],
                           [ 1.72000e-02,  5.47200e-03,  2.33200e-03,  3.28400e-04,  1.89300e-04,  2.88000e-04,  2.13300e-04,  4.10400e-05],
                           [ 3.98800e-03,  2.27400e-03,  2.66200e-03, -1.16100e-04, -1.93200e-04,  4.55200e-05,  9.73200e-05,  7.02500e-05],
                           [-5.06100e-03, -1.78100e-03,  2.33600e-03,  1.74200e-04, -2.34900e-04, -3.48200e-05,  2.51200e-05,  2.59200e-05],
                           [-2.45900e-03, -4.42400e-03,  1.00900e-03,  5.71600e-04, -9.11400e-05, -9.16900e-05, -2.09400e-06,  1.34700e-05]])
#  bRO2(+M) <=> bQOOH[O](+M)                           1.000e+00 0.000     0.000
#      TCHEB/ 180.000   1500.000 /
#      PCHEB/ 0.010     98.692   /
#      CHEB/ 10 8/
#      CHEB/ -5.367e+00   1.057e+00    -2.603e-01   7.527e-03    9.169e-03   /
#      CHEB/ -1.282e-03   -5.273e-04   1.656e-04    1.159e+01    9.046e-01   /
#      CHEB/ -2.600e-02   -6.670e-02   7.124e-04    6.862e-03    -4.327e-04  /
#      CHEB/ -7.645e-04   -4.394e-01   3.249e-01    6.146e-02    -1.274e-02  /
#      CHEB/ -1.693e-02   6.663e-04    2.644e-03    -3.974e-05   -3.011e-01  /
#      CHEB/ 1.641e-01    2.840e-02    1.027e-02    -7.538e-03   -4.376e-03  /
#      CHEB/ 9.689e-04    9.362e-04    -1.882e-01   1.105e-01    6.247e-03   /
#      CHEB/ 7.095e-03    9.024e-04    -2.950e-03   -9.242e-04   5.547e-04   /
#      CHEB/ -1.059e-01   5.713e-02    5.434e-03    1.856e-03    1.914e-03   /
#      CHEB/ -4.305e-04   -9.479e-04   -1.176e-04   -6.119e-02   3.261e-02   /
#      CHEB/ 1.946e-03    -5.848e-05   1.447e-03    4.548e-04    -4.230e-04  /
#      CHEB/ -2.823e-04   -2.759e-02   8.428e-03    3.311e-03    -3.080e-04  /
#      CHEB/ 2.452e-04    5.704e-04    3.226e-05    -2.081e-04   -1.621e-02  /
#      CHEB/ 6.658e-03    -1.022e-04   -1.152e-04   2.097e-04    2.425e-04   /
#      CHEB/ 1.111e-04    -4.348e-05   -5.008e-03   -1.616e-03   1.280e-03   /
#      CHEB/ -4.330e-05   -2.149e-04   1.346e-04    1.278e-04    6.869e-06   /
#  bQOOHg(+M) <=> bQOOH[O](+M)                         1.000e+00 0.000     0.000
#      TCHEB/ 180.000   1500.000 /
#      PCHEB/ 0.010     98.692   /
#      CHEB/ 10 8/
#      CHEB/ -1.992e+00   -1.595e-01   -3.759e-01   -9.424e-03   1.726e-02   /
#      CHEB/ -5.722e-04   -2.108e-03   2.978e-04    4.947e+00    1.679e+00   /
#      CHEB/ -7.014e-02   -5.720e-02   -1.612e-02   6.659e-03    2.472e-03   /
#      CHEB/ -1.182e-03   1.370e-01    8.441e-01    -8.110e-04   -2.966e-03  /
#      CHEB/ -1.016e-02   -5.170e-03   1.701e-03    1.138e-03    -5.147e-01  /