units(length='cm', time='s', quantity='mol', act_energy='kcal/mol')

ideal_gas(name='gas',
          elements="H D T C Ci O Oi N Ne Ar He Si S F Cl Br I X",
          species="""aOOHbalkene      OH               ibutanal
                     aR               performic_acid   disub_c4ether
                     aQOOHb           H                aadduct
                     trisub_epoxy     ibutenol         aQOOH[O]
                     ipropyl          aRO2             O2
                     formic_acid      propene          aQOOHg
                     ibut_peroxyacid  HO2              CH3""",
          reactions='all',
          initial_state=state(temperature=300.0, pressure=OneAtm))

#-------------------------------------------------------------------------------
# Element data
#-------------------------------------------------------------------------------

element(symbol='Ci', atomic_mass=13.003)
element(symbol='D', atomic_mass=2.014)
element(symbol='Oi', atomic_mass=18.0)
element(symbol='T', atomic_mass=3.016)
element(symbol='X', atomic_mass=195.083)
#-------------------------------------------------------------------------------
# Species data
#-------------------------------------------------------------------------------

species(name='aOOHbalkene',
        atoms='C:3 H:6 O:3',
        thermo=(NASA([10.00, 497.41],
                     [ 3.76691735E+00,  1.51417956E-02,  1.85499431E-04,
                      -4.61303214E-07,  3.27678941E-10, -3.24617344E+04,
                       1.09903968E+01]),
                NASA([497.41, 3000.00],
                     [ 6.20882781E+00,  4.08866173E-02, -2.89934946E-05,
                       9.60428979E-09, -1.19355432E-12, -3.32660637E+04,
                      -4.72842811E+00])))

species(name='OH',
        atoms='H:1 O:1',
        thermo=(NASA([10.00, 984.14],
                     [ 3.49686242E+00,  1.83973160E-04, -9.97634499E-07,
                       1.56942783E-09, -6.10128175E-13,  3.41673934E+03,
                       1.48093120E+00]),
                NASA([984.14, 3000.00],
                     [ 3.45221464E+00, -2.95124034E-04,  7.39418622E-07,
                      -2.89309866E-10,  3.53041498E-14,  3.45751599E+03,
                       1.85813897E+00])))

species(name='ibutanal',
        atoms='C:4 H:8 O:1',
        thermo=(NASA([10.00, 683.88],
                     [ 3.57157346E+00,  3.36936906E-02, -1.78475021E-05,
                       1.31946716E-08, -7.58008388E-12, -2.94191830E+04,
                       1.05595084E+01]),
                NASA([683.88, 3000.00],
                     [ 1.29043622E+00,  4.14804229E-02, -2.27411206E-05,
                       6.08619500E-09, -6.38995128E-13, -2.89772639E+04,
                       2.16477430E+01])))

species(name='aR',
        atoms='C:4 H:9 O:1',
        thermo=(NASA([10.00, 455.22],
                     [ 3.59625500E+00,  3.38947981E-02,  7.37257079E-06,
                      -3.99275335E-08,  2.49019944E-11, -1.30229249E+04,
                       1.18269265E+01]),
                NASA([455.22, 3000.00],
                     [ 2.49586309E+00,  4.35639890E-02, -2.44887770E-05,
                       6.73363769E-09, -7.23862433E-13, -1.29227418E+04,
                       1.62696907E+01])))

species(name='performic_acid',
        atoms='C:1 H:2 O:3',
        thermo=(NASA([10.00, 590.95],
                     [ 3.92633851E+00,  4.24517168E-03,  6.71106764E-05,
                      -1.36545385E-07,  8.03337864E-11, -3.63028176E+04,
                       8.06485813E+00]),
                NASA([590.95, 3000.00],
                     [ 4.39992934E+00,  1.85411415E-02, -1.36005501E-05,
                       4.62292431E-09, -5.88463603E-13, -3.66643888E+04,
                       3.44353230E+00])))

species(name='disub_c4ether',
        atoms='C:4 H:8 O:2',
        thermo=(NASA([10.00, 413.50],
                     [ 3.78241323E+00,  1.89501763E-02,  8.65302396E-05,
                      -1.80580575E-07,  1.13656264E-10, -4.04422726E+04,
                       1.09982450E+01]),
                NASA([413.50, 3000.00],
                     [ 4.29420885E-01,  5.13851903E-02, -3.11292293E-05,
                       9.11498284E-09, -1.03192718E-12, -4.01649783E+04,
                       2.42134976E+01])))

species(name='aQOOHb',
        atoms='C:4 H:9 O:3',
        thermo=(NASA([10.00, 412.78],
                     [ 3.15498836E+00,  8.55068303E-02, -2.35307993E-04,
                       4.71983261E-07, -3.62709267E-10, -2.81688399E+04,
                       1.52522123E+01]),
                NASA([412.78, 3000.00],
                     [ 4.18099845E+00,  5.26168288E-02, -3.23998410E-05,
                       9.59389339E-09, -1.09464519E-12, -2.80580450E+04,
                       1.35782328E+01])))

species(name='H',
        atoms='H:1',
        thermo=(NASA([10.00, 794.01],
                     [ 2.50000000E+00,  1.99051163E-15, -1.19089508E-17,
                       2.10805655E-20, -1.11017699E-23,  2.54725594E+04,
                      -4.61279342E-01]),
                NASA([794.01, 3000.00],
                     [ 2.50000000E+00,  1.52667235E-14, -1.58445285E-17,
                       6.63088600E-21, -9.62111674E-25,  2.54725594E+04,
                      -4.61279342E-01])))

species(name='aadduct',
        atoms='C:4 H:9 O:3',
        thermo=(NASA([10.00, 449.84],
                     [ 3.06901904E+00,  9.20724491E-02, -2.68085092E-04,
                       5.15249897E-07, -3.68046586E-10, -3.17878046E+04,
                       1.46591735E+01]),
                NASA([449.84, 3000.00],
                     [ 4.11210745E+00,  5.16955724E-02, -2.97401041E-05,
                       8.32758939E-09, -9.08861448E-13, -3.15669636E+04,
                       1.39578825E+01])))

species(name='trisub_epoxy',
        atoms='C:4 H:8 O:2',
        thermo=(NASA([10.00, 209.19],
                     [ 3.75295042E+00,  2.37546930E-02,  1.26610110E-04,
                      -4.78364365E-07,  5.79468168E-10, -3.77298615E+04,
                       1.12739684E+01]),
                NASA([209.19, 3000.00],
                     [ 2.64185254E+00,  4.50006531E-02, -2.57361066E-05,
                       7.15266054E-09, -7.72980731E-13, -3.76833760E+04,
                       1.48960343E+01])))

species(name='ibutenol',
        atoms='C:4 H:8 O:1',
        thermo=(NASA([10.00, 135.97],
                     [ 3.95714996E+00,  5.72646980E-03,  4.63611760E-04,
                      -3.04137514E-06,  6.85019471E-09, -2.13857957E+04,
                       8.21931848E+00]),
                NASA([135.97, 3000.00],
                     [ 3.32467612E+00,  3.69033556E-02, -1.89960416E-05,
                       4.73417677E-09, -4.59705291E-13, -2.13802170E+04,
                       9.58133237E+00])))

species(name='aQOOH[O]',
        atoms='C:4 H:9 O:3',
        thermo=(NASA([10.00, 488.36],
                     [ 3.54559533E+00,  3.89536133E-02,  8.47689703E-05,
                      -2.45147486E-07,  1.76157259E-10, -2.32717801E+04,
                       1.34685910E+01]),
                NASA([488.36, 3000.00],
                     [ 3.94214913E+00,  5.71928314E-02, -3.72516212E-05,
                       1.15209013E-08, -1.35808341E-12, -2.35667410E+04,
                       9.21628964E+00])))

species(name='ipropyl',
        atoms='C:3 H:7',
        thermo=(NASA([10.00, 421.76],
                     [ 3.73943775E+00,  3.10070157E-02, -1.51196908E-04,
                       4.35367329E-07, -3.85565052E-10,  9.49213457E+03,
                       7.79448918E+00]),
                NASA([421.76, 3000.00],
                     [-4.74526725E-01,  3.20862468E-02, -1.67340747E-05,
                       4.21365136E-09, -4.13155573E-13,  1.01934458E+04,
                       2.85865912E+01])))

species(name='aRO2',
        atoms='C:4 H:9 O:3',
        thermo=(NASA([10.00, 670.36],
                     [ 3.45405325E+00,  4.74751311E-02,  9.77507759E-06,
                      -6.31019603E-08,  3.75500067E-11, -3.30744826E+04,
                       1.39284976E+01]),
                NASA([670.36, 3000.00],
                     [ 5.04137652E+00,  5.19952978E-02, -3.16472789E-05,
                       9.22798587E-09, -1.03598915E-12, -3.36016752E+04,
                       4.56056770E+00])))

species(name='O2',
        atoms='O:2',
        thermo=(NASA([10.00, 605.96],
                     [ 3.50743498E+00, -4.43860349E-04,  1.45938058E-06,
                       1.61509333E-09, -2.32050052E-12, -9.24756224E+02,
                       4.72183634E+00]),
                NASA([605.96, 3000.00],
                     [ 2.87462882E+00,  2.17840991E-03, -1.18262921E-06,
                       2.86910493E-10, -2.53297146E-14, -8.19517838E+02,
                       7.69331810E+00])))

species(name='formic_acid',
        atoms='C:1 H:2 O:2',
        thermo=(NASA([10.00, 741.38],
                     [ 4.06855785E+00, -4.74562133E-03,  4.71797900E-05,
                      -6.07490052E-08,  2.51286794E-11, -4.66880837E+04,
                       6.53681035E+00]),
                NASA([741.38, 3000.00],
                     [ 1.13645847E+00,  1.74953124E-02, -1.08112403E-05,
                       3.08075326E-09, -3.34892658E-13, -4.64297918E+04,
                       1.86149484E+01])))

species(name='propene',
        atoms='C:3 H:6',
        thermo=(NASA([10.00, 519.53],
                     [ 3.98723879E+00,  4.72040503E-04,  6.51776229E-05,
                      -9.89891002E-08,  4.91141123E-11,  1.34637250E+03,
                       6.98071210E+00]),
                NASA([519.53, 3000.00],
                     [ 3.79893331E-01,  2.82457690E-02, -1.50108430E-05,
                       3.90894069E-09, -4.00521928E-13,  1.72119984E+03,
                       2.20218922E+01])))

species(name='aQOOHg',
        atoms='C:4 H:9 O:3',
        thermo=(NASA([10.00, 455.48],
                     [ 3.62522127E+00,  2.83222320E-02,  2.08527447E-04,
                      -5.67427418E-07,  4.35169138E-10, -2.61732652E+04,
                       1.26617758E+01]),
                NASA([455.48, 3000.00],
                     [ 5.13914202E+00,  5.96270859E-02, -4.14435328E-05,
                       1.34202375E-08, -1.63474553E-12, -2.67738215E+04,
                       1.46991116E+00])))

species(name='ibut_peroxyacid',
        atoms='C:4 H:8 O:3',
        thermo=(NASA([10.00, 1386.21],
                     [ 3.50995385E+00,  4.78670384E-02, -2.40781384E-05,
                       3.71046938E-09,  3.85442115E-13, -4.72943695E+04,
                       1.22017268E+01]),
                NASA([1386.21, 3000.00],
                     [ 1.24543146E+01,  3.02396862E-02, -1.38577031E-05,
                       3.05328904E-09, -2.63982457E-13, -5.05602528E+04,
                      -3.67061828E+01])))

species(name='HO2',
        atoms='H:1 O:2',
        thermo=(NASA([10.00, 891.11],
                     [ 4.02887004E+00, -1.75769289E-03,  1.08726004E-05,
                      -1.13812972E-08,  3.90113097E-12,  4.95165001E+02,
                       4.69302008E+00]),
                NASA([891.11, 3000.00],
                     [ 3.06571044E+00,  4.28505005E-03, -2.19325920E-06,
                       5.58882699E-10, -5.61246669E-14,  5.98557610E+02,
                       8.84564156E+00])))

species(name='CH3',
        atoms='C:1 H:3',
        thermo=(NASA([10.00, 616.77],
                     [ 3.98929952E+00,  5.45150461E-04,  9.01320092E-06,
                      -1.08320497E-08,  4.38985879E-12,  1.65859883E+04,
                       2.22446886E-01]),
                NASA([616.77, 3000.00],
                     [ 3.35928237E+00,  4.63117126E-03, -9.24365433E-07,
                      -9.02514624E-11,  3.56905106E-14,  1.66637014E+04,
                       2.95743732E+00])))

#-------------------------------------------------------------------------------
# Reaction data
#-------------------------------------------------------------------------------

# Reaction 1
chebyshev_reaction('aQOOH[O] (+ M) <=> aQOOHb (+ M)',
                   Tmin=180.0, Tmax=1500.0,
                   Pmin=(0.01, 'atm'), Pmax=(98.692, 'atm'),
                   coeffs=[[-4.86700e+00,  2.63100e+00, -1.88700e-01, -4.63300e-02,  5.10800e-03,  8.04900e-03,  3.84300e-04, -1.22300e-03],
                           [-5.03000e+00,  1.52100e+00,  8.26300e-02,  2.01600e-02, -3.45500e-03, -7.15400e-03,  5.94600e-05,  1.64600e-03],
                           [-2.97200e+00,  6.67800e-01,  3.55100e-02, -1.81000e-02,  5.31400e-03,  2.48700e-03, -1.00400e-03, -6.29600e-04],
                           [-1.64200e+00,  4.92600e-02,  1.80800e-02, -5.94500e-03,  7.35700e-04,  2.96700e-03,  7.75500e-04, -2.33900e-04],
                           [-9.09600e-01, -1.42100e-01, -1.75100e-02, -1.06300e-04, -3.03200e-03, -6.84100e-04,  8.03800e-04,  4.60500e-04],
                           [-4.17100e-01, -1.09700e-01, -2.97500e-02, -7.66700e-04, -1.14400e-03, -1.85300e-03, -4.36700e-04,  2.16100e-04],
                           [-1.23700e-01, -2.49000e-02, -1.78700e-02, -4.34700e-03,  5.39800e-05, -7.25400e-04, -6.27900e-04, -1.35800e-04],
                           [-4.93300e-03,  1.30000e-02, -4.94400e-04, -4.74900e-03, -8.82900e-04,  6.22500e-04, -7.76000e-05, -3.31900e-04],
                           [-3.04500e-02,  3.37200e-02,  1.07400e-02, -2.18200e-04, -6.22200e-04, -5.50600e-06,  1.70100e-04,  9.28500e-05],
                           [ 5.04000e-02,  8.34700e-03,  1.13300e-02,  2.70600e-03, -1.01200e-03, -1.63500e-05,  3.28900e-04,  2.47900e-05]])

# Reaction 2
chebyshev_reaction('aQOOHg (+ M) <=> aQOOHb (+ M)',
                   Tmin=180.0, Tmax=1500.0,
                   Pmin=(0.01, 'atm'), Pmax=(98.692, 'atm'),
                   coeffs=[[-5.92400e+00,  1.71700e+00, -2.98900e-01, -2.36900e-02, -7.07100e-03,  7.17900e-03,  6.11200e-04, -1.03600e-03],
                           [-3.15000e+00,  2.46300e+00,  4.12600e-01, -5.43200e-02, -5.03500e-03, -6.00100e-03,  4.16600e-04,  1.16100e-03],
                           [-3.76800e+00, -7.23100e-02,  2.38600e-01,  6.22600e-02, -8.38800e-03,  9.28300e-04, -3.72300e-04, -8.33000e-04],
                           [-1.92000e+00, -6.45000e-01, -9.83000e-02,  7.72500e-02,  1.36800e-02, -5.25200e-03, -3.46800e-05,  5.47000e-04],
                           [-7.02000e-01, -2.86900e-01, -1.84900e-01,  1.08600e-04,  2.41800e-02,  1.05400e-03, -2.69700e-03,  2.46400e-04],
                           [-1.97900e-01, -4.66900e-02, -6.88800e-02, -3.25500e-02,  1.80600e-03,  6.53100e-03,  2.62300e-04, -1.01400e-03],
                           [-1.13000e-01,  2.47700e-02,  9.59800e-04, -1.11800e-02, -9.82900e-03,  2.81500e-04,  2.70900e-03,  9.26900e-05],
                           [-1.13600e-01,  4.58900e-02, -6.29600e-03,  6.24800e-04, -2.09500e-03, -3.13500e-03,  1.82100e-04,  9.68800e-04],
                           [-1.52400e-02,  2.92000e-03, -1.21600e-03, -5.92200e-03,  1.20800e-03, -1.93600e-04, -1.24300e-03,  3.92700e-05],
                           [ 4.25700e-02,  1.28900e-03,  4.45500e-03, -7.75900e-04, -3.30900e-03,  3.49300e-04,  2.89200e-04, -3.89000e-04]])

# Reaction 3
chebyshev_reaction('aRO2 (+ M) <=> aQOOHb (+ M)',
                   Tmin=180.0, Tmax=1500.0,
                   Pmin=(0.01, 'atm'), Pmax=(98.692, 'atm'),
                   coeffs=[[-9.99400e+00,  4.63100e+00, -1.12000e+00,  8.25200e-02,  1.13700e-01, -4.68400e-02, -5.42200e-03,  8.47300e-03],
                           [ 6.31000e+00, -1.27400e+00,  1.44500e+00, -1.11000e-01, -1.24400e-01,  4.26200e-02,  5.90100e-04, -6.35600e-03],
                           [-2.66500e+00,  4.96500e-02,  1.23100e-01,  8.36900e-02, -9.05800e-03, -6.78200e-03,  2.51400e-03, -4.99300e-04],
                           [-1.45800e+00, -2.86900e-01, -8.25300e-02,  2.74400e-02,  1.22100e-02,  1.55400e-03,  1.12000e-03, -4.67600e-04],
                           [-7.72100e-01, -2.44700e-01, -1.30500e-01, -1.81800e-02,  9.69800e-03,  4.97500e-03,  9.29000e-04, -2.36100e-04],
                           [-3.51000e-01, -1.09900e-01, -8.45500e-02, -2.54400e-02, -3.64800e-04,  2.71600e-03,  9.76800e-04, -2.76000e-05],
                           [-1.14300e-01,  9.49300e-04, -2.37700e-02, -1.57700e-02, -4.91400e-03, -1.10300e-04,  4.05600e-04,  6.39100e-05],
                           [-5.95000e-02,  8.00300e-02,  2.07100e-03, -5.67900e-03, -1.85500e-03, -1.57900e-03, -5.36400e-04,  2.18000e-04],
                           [ 3.65200e-02,  1.56100e-02,  2.49700e-02,  7.05800e-03, -3.13200e-03, -1.26200e-03, -2.99200e-05, -9.42300e-05],
                           [-2.54300e-02,  3.91200e-02,  7.14100e-03,  4.56000e-03,  2.73600e-03, -6.75600e-04, -5.72700e-04,  5.01500e-05]])

# Reaction 4
chebyshev_reaction('aadduct (+ M) <=> aQOOHb (+ M)',
                   Tmin=180.0, Tmax=1500.0,
                   Pmin=(0.01, 'atm'), Pmax=(98.692, 'atm'),
                   coeffs=[[-1.39100e+01,  3.77900e+00, -1.25700e+00,  1.32800e-01,  1.17400e-01, -5.33800e-02, -3.78300e-03,  9.38200e-03],
                           [ 4.41300e+00, -1.31800e+00,  1.52800e+00, -7.45300e-02, -1.40900e-01,  3.50200e-02,  4.61900e-03, -4.67900e-03],
                           [-2.87800e+00,  6.63300e-02,  1.69200e-01,  9.08800e-02, -1.90300e-02, -6.33700e-03,  5.35400e-03, -9.53200e-04],
                           [-1.54100e+00, -3.31200e-01, -4.03400e-02,  3.56700e-02,  1.55500e-03,  1.46400e-03,  3.59800e-03, -6.07800e-04],
                           [-8.72500e-01, -1.80700e-01, -1.27900e-01, -2.40000e-02,  1.23900e-02,  6.75900e-03, -1.09300e-04, -9.06100e-04],
                           [-4.32400e-01, -3.13500e-02, -8.57000e-02, -3.44200e-02,  1.48200e-03,  4.81500e-03,  4.92800e-04, -6.83300e-04],
                           [-2.56200e-01,  1.45500e-01, -2.68200e-02, -4.17700e-02, -1.74500e-03,  7.53500e-03,  1.49700e-05, -1.84700e-03],
                           [ 7.99700e-02, -9.64300e-02,  2.16600e-02,  2.58200e-02, -8.35000e-03, -1.00600e-02,  8.36500e-05,  2.20400e-03],
                           [ 2.69500e-02,  1.55100e-02,  1.99600e-02,  1.35300e-02, -1.74300e-03, -4.42800e-03, -3.75100e-04,  7.70100e-04],
                           [-7.33600e-02,  8.90500e-02,  1.22700e-02, -6.50000e-03,  5.97700e-04,  2.56900e-03,  4.67300e-04, -5.85800e-04]])

# Reaction 5
chebyshev_reaction('O2 + aR (+ M) <=> aQOOHb (+ M)',
                   Tmin=180.0, Tmax=1500.0,
                   Pmin=(0.01, 'atm'), Pmax=(98.692, 'atm'),
                   coeffs=[[-1.53500e+00,  7.14800e+00, -2.01700e+00,  7.31700e-02,  1.67600e-01, -8.83200e-02,  2.01900e-02, -4.16500e-03],
                           [-2.12100e+00, -4.04900e-01,  1.79800e+00, -4.09800e-01, -1.36100e-01,  1.25000e-01, -4.12200e-02,  1.08300e-02],
                           [-1.42200e+00, -3.15600e-01,  5.13800e-01,  4.15100e-02, -3.34100e-02, -1.86600e-02,  1.83300e-02, -8.71100e-03],
                           [-8.49700e-01, -4.12300e-01,  7.19800e-02,  9.08300e-02, -1.54500e-02,  1.15700e-05, -3.48400e-04, -8.60800e-04],
                           [-4.27100e-01, -2.91000e-01, -4.33700e-02,  2.76000e-02,  6.71600e-03,  3.55300e-04, -1.46200e-04,  7.14500e-04],
                           [-1.80300e-01, -1.35100e-01, -5.35800e-02, -4.30500e-03,  4.28400e-03,  1.09300e-05,  1.78100e-03, -4.62500e-04],
                           [-5.42400e-02, -2.97600e-02, -2.90500e-02, -1.05300e-02, -2.02500e-03,  3.55400e-04,  5.72800e-04,  3.71800e-04],
                           [-4.80700e-03,  1.65900e-02, -3.22200e-03, -6.73000e-03, -3.44100e-03, -7.45000e-04,  1.56100e-04,  3.60700e-04],
                           [ 7.21900e-03,  2.46400e-02,  9.81400e-03,  2.37600e-04, -2.36600e-03, -1.16000e-03, -6.66500e-05,  6.52200e-05],
                           [ 3.47300e-03,  1.53900e-02,  1.09300e-02,  4.15900e-03, -1.31600e-04, -8.42700e-04, -2.99500e-04,  2.89000e-05]])
#  aQOOHb(+M) <=> aQOOH[O](+M)                         1.000e+00 0.000     0.000
#      TCHEB/ 180.000   1500.000 /
#      PCHEB/ 0.010     98.692   /
#      CHEB/ 10 8/
#      CHEB/ -1.298e+01   2.631e+00    -1.887e-01   -4.633e-02   5.108e-03   /
#      CHEB/ 8.049e-03    3.843e-04    -1.223e-03   -9.075e-03   1.521e+00   /
#      CHEB/ 8.263e-02    2.016e-02    -3.455e-03   -7.154e-03   5.946e-05   /
#      CHEB/ 1.646e-03    -2.894e+00   6.678e-01    3.551e-02    -1.810e-02  /
#      CHEB/ 5.314e-03    2.487e-03    -1.004e-03   -6.296e-04   -1.596e+00  /
#      CHEB/ 4.926e-02    1.808e-02    -5.945e-03   7.357e-04    2.967e-03   /
#      CHEB/ 7.755e-04    -2.339e-04   -8.942e-01   -1.421e-01   -1.751e-02  /
#      CHEB/ -1.063e-04   -3.032e-03   -6.841e-04   8.038e-04    4.605e-04   /
#      CHEB/ -4.123e-01   -1.097e-01   -2.975e-02   -7.667e-04   -1.144e-03  /
#      CHEB/ -1.853e-03   -4.367e-04   2.161e-04    -1.219e-01   -2.490e-02  /
#      CHEB/ -1.787e-02   -4.347e-03   5.398e-05    -7.254e-04   -6.279e-04  /
#      CHEB/ -1.358e-04   -4.217e-03   1.300e-02    -4.944e-04   -4.749e-03  /
#      CHEB/ -8.829e-04   6.225e-04    -7.760e-05   -3.319e-04   -3.026e-02  /
#      CHEB/ 3.372e-02    1.074e-02    -2.182e-04   -6.222e-04   -5.506e-06  /
#      CHEB/ 1.701e-04    9.285e-05    5.041e-02    8.347e-03    1.133e-02   /
#      CHEB/ 2.706e-03    -1.012e-03   -1.635e-05   3.289e-04    2.479e-05   /

# Reaction 6
chebyshev_reaction('aQOOHg (+ M) <=> aQOOH[O] (+ M)',
                   Tmin=180.0, Tmax=1500.0,
                   Pmin=(0.01, 'atm'), Pmax=(98.692, 'atm'),
                   coeffs=[[-8.25200e+00,  3.04800e+00, -4.05200e-01,  3.22800e-02, -6.12800e-03,  7.92300e-03,  1.34800e-03, -1.58800e-03],
                           [-5.62600e+00,  1.04100e+00,  2.09700e-01, -4.49600e-02,  2.36900e-02, -1.13500e-02, -1.56200e-03,  2.32700e-03],
                           [-4.54000e+00, -1.92200e-01,  1.31900e-01, -6.97000e-03, -1.85600e-03,  5.88800e-03, -1.55900e-03, -9.24700e-04],
                           [-1.87400e+00, -3.15500e-01, -7.95000e-02,  1.18800e-02,  3.57000e-03,  2.50200e-03,  8.67200e-04, -3.37300e-04],
                           [-6.94400e-01, -2.86300e-02, -9.75100e-02, -2.88700e-02,  3.27900e-03,  2.21500e-03, -1.24300e-05,  4.00300e-04],
                           [-2.37500e-01,  5.83100e-02,  1.46100e-02, -2.30100e-02, -1.14800e-02,  1.44000e-03,  7.00400e-04, -1.59600e-04],
                           [-1.31300e-01,  3.70900e-02,  4.54500e-02,  1.16200e-02, -9.27000e-03, -3.97600e-03,  8.44000e-04,  2.24900e-04],
                           [-1.06800e-01,  1.10600e-02,  7.90600e-04,  1.56600e-02,  4.90800e-03, -2.77700e-03, -1.40400e-03,  1.62200e-04],
                           [-6.38600e-02, -2.27100e-02, -1.05400e-02, -2.22500e-03,  6.99100e-03,  2.02000e-03, -1.27600e-03, -4.72500e-04],
                           [ 8.79400e-02, -2.46500e-02, -9.56700e-03, -4.54400e-03, -2.63300e-03,  2.45800e-03,  1.26000e-03, -4.82100e-04]])

# Reaction 7
chebyshev_reaction('aRO2 (+ M) <=> aQOOH[O] (+ M)',
                   Tmin=180.0, Tmax=1500.0,
                   Pmin=(0.01, 'atm'), Pmax=(98.692, 'atm'),
                   coeffs=[[-1.31300e+01,  7.35600e+00, -1.34500e+00, -1.55700e-01,  2.07400e-01, -3.38800e-02, -2.33700e-02,  1.66300e-02],
                           [ 4.87700e+00, -2.55000e+00,  1.33000e+00,  4.20400e-02, -2.42200e-01,  6.38900e-02,  2.49500e-02, -2.67200e-02],
                           [-3.69700e+00, -2.37300e-01,  1.69500e-01, -8.34400e-03,  2.36000e-02, -2.20700e-02, -2.32100e-03,  1.34200e-02],
                           [-1.80900e+00, -1.03700e-01, -9.70700e-02,  8.50500e-02, -1.73200e-02, -1.82500e-03,  6.61900e-03, -8.01700e-03],
                           [-8.65900e-01, -1.48100e-01, -1.39600e-02, -1.68500e-02,  1.40200e-02, -4.24700e-04, -5.34500e-03,  5.90200e-03],
                           [-3.96200e-01, -2.58600e-02, -3.47200e-02, -1.42200e-03,  4.73100e-04, -2.61500e-03,  3.08900e-03, -2.19900e-03],
                           [-1.34200e-01,  2.43900e-02, -8.65400e-03,  7.30400e-05, -4.65500e-03,  1.58700e-03, -1.15100e-03,  3.63700e-04],
                           [-1.41500e-02,  9.22400e-03,  1.41700e-02, -6.50000e-03,  2.76600e-03, -1.04300e-03, -1.13400e-03,  1.26100e-03],
                           [-4.28400e-02,  2.41100e-02, -5.31100e-03,  1.22700e-02, -1.49000e-03, -1.55500e-03,  2.03600e-03, -2.10800e-03],
                           [ 4.67000e-02, -1.14800e-02,  1.36900e-02, -6.98100e-03,  2.81900e-03,  2.29000e-03, -3.00500e-03,  2.40000e-03]])

# Reaction 8
chebyshev_reaction('aadduct (+ M) <=> aQOOH[O] (+ M)',
                   Tmin=180.0, Tmax=1500.0,
                   Pmin=(0.01, 'atm'), Pmax=(98.692, 'atm'),
                   coeffs=[[-1.70500e+01,  6.50400e+00, -1.48200e+00, -1.05500e-01,  2.11100e-01, -4.04000e-02, -2.17100e-02,  1.75300e-02],
                           [ 2.98000e+00, -2.59300e+00,  1.41300e+00,  7.84200e-02, -2.58800e-01,  5.63400e-02,  2.90100e-02, -2.50600e-02],
                           [-3.91100e+00, -2.20200e-01,  2.15700e-01, -1.26000e-03,  1.35500e-02, -2.15800e-02,  5.56300e-04,  1.29500e-02],
                           [-1.89200e+00, -1.47600e-01, -5.47900e-02,  9.31800e-02, -2.80500e-02, -1.87300e-03,  9.13200e-03, -8.17100e-03],
                           [-9.66600e-01, -8.36800e-02, -1.13300e-02, -2.27600e-02,  1.66400e-02,  1.39900e-03, -6.35100e-03,  5.21900e-03],
                           [-4.77900e-01,  5.30200e-02, -3.57800e-02, -1.04900e-02,  2.25200e-03, -4.79900e-04,  2.63500e-03, -2.86600e-03],
                           [-2.76400e-01,  1.69200e-01, -1.16300e-02, -2.60000e-02, -1.54800e-03,  9.26300e-03, -1.51500e-03, -1.55800e-03],
                           [ 1.25100e-01, -1.67000e-01,  3.38300e-02,  2.49400e-02, -3.78300e-03, -9.49600e-03, -4.90900e-04,  3.23900e-03],
                           [-5.25900e-02,  2.42100e-02, -1.02500e-02,  1.86900e-02, -1.47800e-04, -4.69800e-03,  1.71100e-03, -1.25100e-03],
                           [-1.37600e-03,  3.86100e-02,  1.88700e-02, -1.80800e-02,  6.40800e-04,  5.55300e-03, -1.94800e-03,  1.75800e-03]])

# Reaction 9
chebyshev_reaction('O2 + aR (+ M) <=> aQOOH[O] (+ M)',
                   Tmin=180.0, Tmax=1500.0,
                   Pmin=(0.01, 'atm'), Pmax=(98.692, 'atm'),
                   coeffs=[[-4.15900e+00,  3.14000e+00,  6.78500e-01,  2.42200e-01, -1.92200e-02, -1.07600e-01, -7.98400e-02, -8.41100e-03],
                           [-1.43600e+00, -1.36200e+00, -7.79900e-01, -2.44700e-01,  6.34100e-02,  1.59000e-01,  1.09200e-01,  2.73900e-03],
                           [-1.62500e+00,  2.04300e-01,  7.89800e-02, -6.61100e-03, -3.67200e-02, -4.19600e-02, -2.47400e-02,  1.06700e-02],
                           [-7.90000e-01,  4.46000e-02,  4.79600e-02,  1.82200e-02, -1.42900e-02, -1.66500e-02, -4.11300e-03, -8.36800e-04],
                           [-4.26400e-01, -6.63300e-04, -1.28600e-02, -2.57500e-03,  1.20600e-02,  9.17200e-03, -2.39100e-03, -6.49700e-03],
                           [-2.06400e-01, -4.27400e-03,  2.18300e-03,  1.07800e-03, -2.22400e-03, -4.22100e-04,  2.71900e-03,  2.09300e-03],
                           [-5.83900e-02,  1.01100e-03,  1.47200e-03,  1.70400e-03,  1.06300e-03, -4.88600e-04, -9.18900e-04,  3.01700e-04],
                           [ 2.74900e-03, -3.12500e-03, -7.80400e-04, -7.01400e-05, -6.27500e-06,  4.94900e-04,  6.10400e-04,  4.13500e-05],
                           [-3.63800e-02,  7.32600e-03,  1.78600e-03, -4.27000e-04, -1.15000e-04,  2.31800e-04,  2.25200e-04,  2.27200e-04],
                           [ 4.86900e-02, -6.92600e-03, -2.89800e-03,  7.52400e-05,  8.53900e-04,  4.22800e-04, -1.57400e-04, -4.08500e-04]])
#  aQOOHb(+M) <=> aQOOHg(+M)                           1.000e+00 0.000     0.000
#      TCHEB/ 180.000   1500.000 /
#      PCHEB/ 0.010     98.692   /
#      CHEB/ 10 8/
#      CHEB/ -1.031e+01   1.717e+00    -2.989e-01   -2.369e-02   -7.071e-03  /
#      CHEB/ 7.179e-03    6.112e-04    -1.036e-03   -9.057e-01   2.463e+00   /
#      CHEB/ 4.126e-01    -5.432e-02   -5.035e-03   -6.001e-03   4.166e-04   /
#      CHEB/ 1.161e-03    -3.545e+00   -7.231e-02   2.386e-01    6.226e-02   /
#      CHEB/ -8.388e-03   9.283e-04    -3.723e-04   -8.330e-04   -1.826e+00  /
#      CHEB/ -6.450e-01   -9.830e-02   7.725e-02    1.368e-02    -5.252e-03  /
#      CHEB/ -3.468e-05   5.470e-04    -6.738e-01   -2.869e-01   -1.849e-01  /
#      CHEB/ 1.086e-04    2.418e-02    1.054e-03    -2.697e-03   2.464e-04   /
#      CHEB/ -1.900e-01   -4.669e-02   -6.888e-02   -3.255e-02   1.806e-03   /
#      CHEB/ 6.531e-03    2.623e-04    -1.014e-03   -1.105e-01   2.477e-02   /
#      CHEB/ 9.598e-04    -1.118e-02   -9.829e-03   2.815e-04    2.709e-03   /
#      CHEB/ 9.269e-05    -1.129e-01   4.589e-02    -6.296e-03   6.248e-04   /
#      CHEB/ -2.095e-03   -3.135e-03   1.821e-04    9.688e-04    -1.522e-02  /
#      CHEB/ 2.920e-03    -1.216e-03   -5.922e-03   1.208e-03    -1.936e-04  /
#      CHEB/ -1.243e-03   3.927e-05    4.243e-02    1.289e-03    4.455e-03   /
#      CHEB/ -7.759e-04   -3.309e-03   3.493e-04    2.892e-04    -3.890e-04  /
#  aQOOH[O](+M) <=> aQOOHg(+M)                         1.000e+00 0.000     0.000
#      TCHEB/ 180.000   1500.000 /
#      PCHEB/ 0.010     98.692   /
#      CHEB/ 10 8/
#      CHEB/ -4.528e+00   3.048e+00    -4.052e-01   3.228e-02    -6.128e-03  /
#      CHEB/ 7.923e-03    1.348e-03    -1.588e-03   -8.402e+00   1.041e+00   /
#      CHEB/ 2.097e-01    -4.496e-02   2.369e-02    -1.135e-02   -1.562e-03  /
#      CHEB/ 2.327e-03    -4.395e+00   -1.922e-01   1.319e-01    -6.970e-03  /
#      CHEB/ -1.856e-03   5.888e-03    -1.559e-03   -9.247e-04   -1.826e+00  /
#      CHEB/ -3.155e-01   -7.950e-02   1.188e-02    3.570e-03    2.502e-03   /
#      CHEB/ 8.672e-04    -3.373e-04   -6.815e-01   -2.863e-02   -9.751e-02  /
#      CHEB/ -2.887e-02   3.279e-03    2.215e-03    -1.243e-05   4.003e-04   /