units(length='cm', time='s', quantity='mol', act_energy='kcal/mol')

ideal_gas(name='gas',
          elements="H D T C Ci O Oi N Ne Ar He Si S F Cl Br I X",
          species="""propene3ol       OH               disub_c4ether
                     H2O              disub_epoxy      gQOOHa
                     propene1ol       gQOOHb           ipropylOOH
                     galdoxy          galkene          CH2O
                     O2               gRO2             gQOOHg
                     gR               galdol           monosub_c4ether
                     HO2              gQOOH[O]""",
          reactions='all',
          initial_state=state(temperature=300.0, pressure=OneAtm))

#-------------------------------------------------------------------------------
# Element data
#-------------------------------------------------------------------------------

element(symbol='Ci', atomic_mass=13.003)
element(symbol='D', atomic_mass=2.014)
element(symbol='Oi', atomic_mass=18.0)
element(symbol='T', atomic_mass=3.016)
element(symbol='X', atomic_mass=195.083)
#-------------------------------------------------------------------------------
# Species data
#-------------------------------------------------------------------------------

species(name='propene3ol',
        atoms='C:3 H:6 O:1',
        thermo=(NASA([10.00, 444.81],
                     [ 3.92769709E+00,  4.89977303E-03,  1.13094874E-04,
                      -2.59008187E-07,  1.86205760E-10, -1.83340108E+04,
                       9.90805416E+00]),
                NASA([444.81, 3000.00],
                     [ 2.61720343E+00,  3.01777872E-02, -1.76511625E-05,
                       5.14864061E-09, -5.91153761E-13, -1.83509113E+04,
                       1.36683107E+01])))

species(name='OH',
        atoms='H:1 O:1',
        thermo=(NASA([10.00, 984.14],
                     [ 3.49686242E+00,  1.83973160E-04, -9.97634499E-07,
                       1.56942783E-09, -6.10128175E-13,  3.41673934E+03,
                       1.48093120E+00]),
                NASA([984.14, 3000.00],
                     [ 3.45221464E+00, -2.95124034E-04,  7.39418622E-07,
                      -2.89309866E-10,  3.53041498E-14,  3.45751599E+03,
                       1.85813897E+00])))

species(name='disub_c4ether',
        atoms='C:4 H:8 O:2',
        thermo=(NASA([10.00, 413.50],
                     [ 3.78241323E+00,  1.89501763E-02,  8.65302396E-05,
                      -1.80580575E-07,  1.13656264E-10, -3.96638001E+04,
                       1.09982450E+01]),
                NASA([413.50, 3000.00],
                     [ 4.29420885E-01,  5.13851903E-02, -3.11292293E-05,
                       9.11498284E-09, -1.03192718E-12, -3.93865058E+04,
                       2.42134976E+01])))

species(name='H2O',
        atoms='H:2 O:1',
        thermo=(NASA([10.00, 773.84],
                     [ 4.00473541E+00, -2.39729134E-04,  8.11862955E-07,
                       1.47891862E-09, -1.19783539E-12, -3.03533807E+04,
                      -9.96254147E-02]),
                NASA([773.84, 3000.00],
                     [ 3.52133374E+00,  1.05377009E-03,  6.40722099E-07,
                      -3.86240235E-10,  5.49243294E-14, -3.02424794E+04,
                       2.34173094E+00])))

species(name='disub_epoxy',
        atoms='C:4 H:8 O:2',
        thermo=(NASA([10.00, 549.41],
                     [ 3.89863211E+00,  5.97532637E-03,  1.66685676E-04,
                      -3.10743768E-07,  1.78330192E-10, -3.62416334E+04,
                       1.13847308E+01]),
                NASA([549.41, 3000.00],
                     [-6.40277648E-01,  6.05960003E-02, -4.13427220E-05,
                       1.31555461E-08, -1.57685017E-12, -3.60685165E+04,
                       2.76005436E+01])))

species(name='gQOOHa',
        atoms='C:4 H:9 O:3',
        thermo=(NASA([10.00, 160.74],
                     [ 3.80808147E+00,  2.31043884E-02,  5.26945984E-04,
                      -3.11500696E-06,  6.03881958E-09, -2.42899085E+04,
                       1.17645316E+01]),
                NASA([160.74, 3000.00],
                     [ 2.90630300E+00,  6.50241173E-02, -4.60073244E-05,
                       1.51330930E-08, -1.87074267E-12, -2.42860839E+04,
                       1.36838819E+01])))

species(name='propene1ol',
        atoms='C:3 H:6 O:1',
        thermo=(NASA([10.00, 459.42],
                     [ 3.91245344E+00,  5.85800161E-03,  1.15412006E-04,
                      -2.68014417E-07,  1.91800131E-10, -1.97722120E+04,
                       8.14807684E+00]),
                NASA([459.42, 3000.00],
                     [ 3.14049093E+00,  2.95550898E-02, -1.73843684E-05,
                       5.11506211E-09, -5.92966137E-13, -1.98804345E+04,
                       9.32215170E+00])))

species(name='gQOOHb',
        atoms='C:4 H:9 O:3',
        thermo=(NASA([10.00, 1018.67],
                     [ 3.99028351E+00,  4.29665712E-02,  2.28338778E-05,
                      -5.67914439E-08,  2.29383258E-11, -2.34633891E+04,
                       1.20326731E+01]),
                NASA([1018.67, 3000.00],
                     [ 1.38304153E+01,  3.88527019E-02, -2.19473905E-05,
                       5.78719895E-09, -5.85097740E-13, -2.72594738E+04,
                      -4.44147388E+01])))

species(name='ipropylOOH',
        atoms='C:3 H:7 O:2',
        thermo=(NASA([10.00, 405.01],
                     [ 3.30075623E+00,  7.58672756E-02, -3.35754269E-04,
                       8.05972164E-07, -6.68864582E-10, -1.04070554E+03,
                       1.43372849E+01]),
                NASA([405.01, 3000.00],
                     [ 2.51742509E+00,  3.72760950E-02, -2.12450220E-05,
                       5.83593926E-09, -6.22110649E-13, -5.97297936E+02,
                       2.20991392E+01])))

species(name='galdoxy',
        atoms='C:4 H:7 O:2',
        thermo=(NASA([10.00, 209.62],
                     [ 3.82641108E+00,  1.84758886E-02,  3.43073800E-04,
                      -1.82817005E-06,  2.98516720E-09, -1.57982552E+04,
                       1.17972706E+01]),
                NASA([209.62, 3000.00],
                     [ 4.22049016E+00,  4.03370149E-02, -2.36129482E-05,
                       6.72979114E-09, -7.47862493E-13, -1.58793250E+04,
                       8.97211724E+00])))

species(name='galkene',
        atoms='C:4 H:8 O:1',
        thermo=(NASA([10.00, 383.47],
                     [ 3.84035604E+00,  1.20378740E-02,  1.87486319E-04,
                      -5.44759148E-07,  4.80711015E-10, -2.00469592E+04,
                       1.02570291E+01]),
                NASA([383.47, 3000.00],
                     [ 4.00413385E+00,  3.79025144E-02, -2.15435710E-05,
                       6.15213311E-09, -6.97446345E-13, -2.02622486E+04,
                       6.98052628E+00])))

species(name='CH2O',
        atoms='C:1 H:2 O:1',
        thermo=(NASA([10.00, 601.31],
                     [ 4.03190845E+00, -1.93233367E-03,  8.89743345E-06,
                       2.98105926E-09, -7.90813886E-12, -1.42276270E+04,
                       3.47574660E+00]),
                NASA([601.31, 3000.00],
                     [ 1.40134195E+00,  9.48858016E-03, -4.43088317E-06,
                       9.48452194E-10, -7.43790219E-14, -1.38013869E+04,
                       1.57423780E+01])))

species(name='O2',
        atoms='O:2',
        thermo=(NASA([10.00, 605.96],
                     [ 3.50743498E+00, -4.43860349E-04,  1.45938058E-06,
                       1.61509333E-09, -2.32050052E-12, -9.24756224E+02,
                       4.72183634E+00]),
                NASA([605.96, 3000.00],
                     [ 2.87462882E+00,  2.17840991E-03, -1.18262921E-06,
                       2.86910493E-10, -2.53297146E-14, -8.19517838E+02,
                       7.69331810E+00])))

species(name='gRO2',
        atoms='C:4 H:9 O:3',
        thermo=(NASA([10.00, 177.33],
                     [ 3.70632176E+00,  3.49733664E-02,  4.64036392E-04,
                      -3.18637835E-06,  6.38178607E-09, -2.98081959E+04,
                       1.24459269E+01]),
                NASA([177.33, 3000.00],
                     [ 4.82062697E+00,  5.17179689E-02, -3.18386818E-05,
                       9.52247045E-09, -1.10180288E-12, -2.99135664E+04,
                       7.14082953E+00])))

species(name='gQOOHg',
        atoms='C:4 H:9 O:3',
        thermo=(NASA([10.00, 475.03],
                     [ 3.42273720E+00,  4.98344215E-02,  6.47820920E-05,
                      -2.49842966E-07,  1.98636537E-10, -2.13373804E+04,
                       1.41578583E+01]),
                NASA([475.03, 3000.00],
                     [ 5.94049074E+00,  5.53778585E-02, -3.71708255E-05,
                       1.17540477E-08, -1.40812095E-12, -2.18783347E+04,
                       7.09201218E-01])))

species(name='gR',
        atoms='C:4 H:9 O:1',
        thermo=(NASA([10.00, 638.24],
                     [ 3.37074633E+00,  5.17529751E-02, -6.54872940E-05,
                       6.88084237E-08, -3.21569794E-11, -1.18636096E+04,
                       1.14339669E+01]),
                NASA([638.24, 3000.00],
                     [ 3.99410860E+00,  4.06314915E-02, -2.23932510E-05,
                       6.08356263E-09, -6.49884708E-13, -1.17962349E+04,
                       9.85769960E+00])))

species(name='galdol',
        atoms='C:4 H:8 O:2',
        thermo=(NASA([10.00, 506.68],
                     [ 3.85380874E+00,  9.21272695E-03,  1.86712348E-04,
                      -3.96417049E-07,  2.55528268E-10, -4.36075758E+04,
                       1.24312743E+01]),
                NASA([506.68, 3000.00],
                     [ 1.49710213E+00,  5.65979142E-02, -3.87709084E-05,
                       1.23682052E-08, -1.48287964E-12, -4.37381852E+04,
                       1.85531759E+01])))

species(name='monosub_c4ether',
        atoms='C:4 H:8 O:2',
        thermo=(NASA([10.00, 380.36],
                     [ 3.47743996E+00,  6.08051311E-02, -2.78518945E-04,
                       8.23182713E-07, -7.87158031E-10, -3.27289162E+04,
                       1.06415154E+01]),
                NASA([380.36, 3000.00],
                     [-1.09346901E+00,  5.35985968E-02, -3.21081420E-05,
                       9.20818293E-09, -1.01830294E-12, -3.19813561E+04,
                       3.35312368E+01])))

species(name='HO2',
        atoms='H:1 O:2',
        thermo=(NASA([10.00, 891.11],
                     [ 4.02887004E+00, -1.75769289E-03,  1.08726004E-05,
                      -1.13812972E-08,  3.90113097E-12,  4.95165001E+02,
                       4.69302008E+00]),
                NASA([891.11, 3000.00],
                     [ 3.06571044E+00,  4.28505005E-03, -2.19325920E-06,
                       5.58882699E-10, -5.61246669E-14,  5.98557610E+02,
                       8.84564156E+00])))

species(name='gQOOH[O]',
        atoms='C:4 H:9 O:3',
        thermo=(NASA([10.00, 535.23],
                     [ 3.83107445E+00,  1.02302002E-02,  2.29377261E-04,
                      -4.59095575E-07,  2.77765018E-10, -1.82899417E+04,
                       1.41034859E+01]),
                NASA([535.23, 3000.00],
                     [-4.19283096E-01,  7.69784620E-02, -5.57279000E-05,
                       1.81378295E-08, -2.18295635E-12, -1.83360551E+04,
                       2.72711816E+01])))

#-------------------------------------------------------------------------------
# Reaction data
#-------------------------------------------------------------------------------

# Reaction 1
chebyshev_reaction('gQOOH[O] (+ M) <=> gRO2 (+ M)',
                   Tmin=180.0, Tmax=1500.0,
                   Pmin=(0.01, 'atm'), Pmax=(98.692, 'atm'),
                   coeffs=[[ 5.34600e+00,  8.66500e-01, -1.38300e-01,  1.76600e-02,  6.23200e-03, -1.91600e-03, -6.17800e-04,  3.11800e-04],
                           [-3.06200e+00,  8.09100e-01, -7.35700e-03, -3.71300e-03,  4.43800e-03, -8.11700e-04, -3.45300e-04,  1.98300e-04],
                           [-3.20200e+00, -1.39700e-02,  7.02200e-02,  1.45000e-02, -6.71200e-03, -1.33500e-03,  1.08600e-03,  1.78600e-04],
                           [-1.77500e+00, -1.36700e-01, -4.52800e-04,  1.07000e-02, -7.02500e-04, -1.33100e-03,  2.92500e-04,  1.90800e-04],
                           [-7.98500e-01, -1.24100e-02, -2.24600e-02, -7.20500e-03,  1.24200e-03,  8.65800e-04, -1.90700e-04, -1.35500e-04],
                           [-3.33500e-01,  4.84300e-02, -1.01600e-03, -8.24900e-03, -1.08200e-03,  8.83400e-04,  8.01600e-05, -1.36000e-04],
                           [-1.53800e-01,  2.66300e-02,  8.76100e-03,  1.50300e-04, -5.72700e-04, -2.39900e-04,  2.06800e-05,  4.71100e-05],
                           [-9.02000e-02, -1.24000e-02,  5.18400e-04,  3.20800e-03,  1.10600e-03, -3.09600e-04, -1.74200e-04,  6.04700e-05],
                           [-5.08600e-02, -2.73900e-02, -7.39300e-03,  1.53200e-04,  9.73300e-04,  1.73200e-04, -8.99700e-05, -9.04900e-06],
                           [-1.52600e-02, -1.60200e-02, -6.69200e-03, -2.56800e-03, -2.71000e-04,  2.02100e-04,  7.56800e-05, -1.53300e-05]])

# Reaction 2
chebyshev_reaction('gQOOHa (+ M) <=> gRO2 (+ M)',
                   Tmin=180.0, Tmax=1500.0,
                   Pmin=(0.01, 'atm'), Pmax=(98.692, 'atm'),
                   coeffs=[[ 8.84000e-01,  1.19600e+00, -1.97000e-01,  3.17400e-02,  2.94000e-03,  3.36600e-04, -2.00300e-04, -3.42900e-04],
                           [ 8.80600e-01,  1.22600e+00,  5.13400e-02, -5.37300e-02,  1.98900e-02,  2.91000e-03, -1.93600e-03, -1.74100e-04],
                           [-2.94400e+00,  2.46800e-01,  1.36100e-01,  3.83800e-03, -8.11600e-03,  3.83800e-03,  6.67200e-04, -6.87600e-04],
                           [-1.85400e+00, -1.69200e-01,  3.33400e-02,  3.83700e-02, -2.80800e-03, -2.11800e-03,  9.85100e-04,  1.11300e-04],
                           [-9.72900e-01, -1.87200e-01, -5.89200e-02,  1.94300e-02,  9.67300e-03, -1.64700e-03, -7.65100e-04,  3.44600e-04],
                           [-4.41400e-01, -6.89200e-02, -7.32800e-02, -9.78200e-03,  8.86900e-03,  1.98500e-03, -7.48600e-04, -1.61700e-04],
                           [-1.71200e-01,  1.70000e-02, -3.20300e-02, -2.11800e-02,  2.25400e-04,  2.95500e-03,  4.27400e-04, -2.83800e-04],
                           [-6.25900e-02,  3.66200e-02,  9.02200e-03, -1.27600e-02, -5.28700e-03,  8.33500e-04,  8.99300e-04,  5.03100e-05],
                           [-4.35200e-02,  1.95200e-02,  1.88400e-02,  2.05800e-03, -4.24200e-03, -1.38400e-03,  3.26300e-04,  2.49700e-04],
                           [-9.35300e-03, -1.51100e-02,  1.27000e-02,  6.59000e-03,  2.59900e-04, -1.35400e-03, -5.65300e-04,  1.32400e-04]])

# Reaction 3
chebyshev_reaction('gQOOHg (+ M) <=> gRO2 (+ M)',
                   Tmin=180.0, Tmax=1500.0,
                   Pmin=(0.01, 'atm'), Pmax=(98.692, 'atm'),
                   coeffs=[[ 3.22800e+00,  6.77800e-01, -8.36900e-03,  1.11100e-02, -2.49700e-03,  3.80100e-04,  7.34800e-05, -4.58300e-05],
                           [-3.11400e+00,  9.84300e-01,  3.37900e-02,  1.26900e-02, -2.04500e-03,  1.93000e-04,  2.12000e-04, -6.94300e-05],
                           [-3.45300e+00,  2.18500e-01,  9.52500e-02,  6.23800e-03,  5.56400e-04,  2.03400e-05,  7.66300e-05,  1.33100e-05],
                           [-2.00500e+00, -3.24900e-01,  5.95500e-02,  1.62300e-02,  7.71700e-04,  1.09700e-04, -5.72800e-05,  8.73100e-06],
                           [-9.05600e-01, -3.76400e-01, -4.17800e-02,  2.17900e-02,  2.68400e-03, -2.60500e-04, -9.52700e-05, -5.39500e-05],
                           [-3.18600e-01, -1.41600e-01, -9.32400e-02,  4.59200e-03,  5.82300e-03, -2.08100e-04, -2.59700e-04, -1.86900e-05],
                           [-9.55400e-02,  5.05400e-02, -5.27100e-02, -1.85100e-02,  4.18900e-03,  1.00900e-03, -3.52100e-04,  6.47900e-05],
                           [-3.85400e-02,  7.41800e-02,  1.35600e-02, -2.00200e-02, -2.62200e-03,  1.84500e-03,  1.17900e-04,  2.42500e-05],
                           [-4.79100e-02,  1.07300e-02,  3.29400e-02, -1.29700e-03, -6.67100e-03,  6.92700e-04,  8.13600e-04, -8.80800e-05],
                           [-7.49700e-03, -3.02600e-02,  6.73400e-03,  1.19300e-02, -2.96700e-03, -1.18600e-03,  7.13700e-04, -7.06200e-05]])

# Reaction 4
chebyshev_reaction('gQOOHb (+ M) <=> gRO2 (+ M)',
                   Tmin=180.0, Tmax=1500.0,
                   Pmin=(0.01, 'atm'), Pmax=(98.692, 'atm'),
                   coeffs=[[-5.99700e-01,  8.86200e-01,  2.06100e-02, -9.71900e-03, -2.60000e-03, -2.06500e-05,  2.33100e-04,  5.61300e-05],
                           [ 8.90200e-01,  1.34000e+00,  6.30800e-02, -1.51900e-02, -2.79200e-03, -3.10700e-04,  2.92100e-04,  8.62300e-05],
                           [-2.36400e+00,  5.12300e-01,  5.08200e-02,  4.85800e-03,  4.57000e-04, -4.71500e-04, -5.20300e-05,  1.04200e-05],
                           [-1.49100e+00, -5.84000e-02, -1.14000e-02,  1.70000e-02,  4.23500e-03, -3.56000e-04, -2.70500e-04, -4.87600e-05],
                           [-8.44900e-01, -1.99900e-01, -5.24900e-02,  8.09700e-03,  4.78200e-03,  3.62800e-04, -2.05600e-04, -6.42800e-05],
                           [-4.13500e-01, -1.13100e-01, -4.19400e-02, -4.60300e-03,  9.13900e-04,  6.66000e-04,  9.23800e-05, -2.09300e-05],
                           [-1.57800e-01, -1.56200e-02, -1.05200e-02, -6.68700e-03, -2.41700e-03,  3.10300e-05,  2.04000e-04,  4.90600e-05],
                           [-5.19500e-02,  1.88400e-02,  7.45200e-03, -1.63700e-03, -2.06600e-03, -4.93800e-04,  1.64300e-06,  4.44700e-05],
                           [-1.72600e-02,  1.31600e-02,  7.04100e-03,  1.83100e-03,  6.50600e-05, -2.39100e-04, -1.66500e-04, -2.84600e-05],
                           [-3.57400e-03,  1.77000e-03,  2.08000e-04,  1.40300e-03,  1.13000e-03,  2.56500e-04, -9.09300e-05, -5.99100e-05]])

# Reaction 5
chebyshev_reaction('O2 + gR (+ M) <=> gRO2 (+ M)',
                   Tmin=180.0, Tmax=1500.0,
                   Pmin=(0.01, 'atm'), Pmax=(98.692, 'atm'),
                   coeffs=[[ 1.33900e+01,  6.45800e-01, -5.61600e-02,  4.26600e-03, -5.26600e-04, -3.08100e-06,  1.19300e-05, -3.38100e-07],
                           [-2.66400e+00,  9.49000e-01, -2.38100e-02, -7.36800e-03,  9.04500e-04,  2.48600e-06, -4.30800e-05,  7.91000e-06],
                           [-1.60700e+00,  4.28700e-01,  4.54900e-02, -4.90900e-03, -1.06900e-03,  1.80600e-04,  1.62600e-05, -1.07700e-05],
                           [-9.29300e-01,  1.07100e-01,  3.86200e-02,  4.34400e-03, -7.81000e-04, -2.05300e-04,  3.19600e-05,  6.81700e-06],
                           [-5.13300e-01, -1.62000e-02,  1.24700e-02,  5.03400e-03,  6.75000e-04, -1.38000e-04, -4.32900e-05,  4.52800e-06],
                           [-2.71200e-01, -4.33100e-02, -1.62800e-03,  1.76900e-03,  7.89000e-04,  1.20400e-04, -2.04800e-05, -1.03500e-05],
                           [-1.35100e-01, -3.88100e-02, -5.25300e-03, -1.66800e-04,  2.41300e-04,  1.24800e-04,  2.74000e-05, -3.31000e-06],
                           [-6.07600e-02, -2.69300e-02, -5.29800e-03, -5.96100e-04, -3.72200e-05,  2.16200e-05,  2.10900e-05,  5.77700e-06],
                           [-2.18800e-02, -1.50700e-02, -4.44700e-03, -6.56500e-04, -6.01400e-05, -1.38500e-05, -1.03600e-06,  3.23800e-06],
                           [-3.25900e-03, -5.41900e-03, -3.18800e-03, -6.96500e-04, -6.80000e-05, -3.96200e-06, -4.90600e-06, -9.89900e-07]])
#  gRO2(+M) <=> gQOOH[O](+M)                           1.000e+00 0.000     0.000
#      TCHEB/ 180.000   1500.000 /
#      PCHEB/ 0.010     98.692   /
#      CHEB/ 10 8/
#      CHEB/ -1.070e+01   8.665e-01    -1.383e-01   1.766e-02    6.232e-03   /
#      CHEB/ -1.916e-03   -6.178e-04   3.118e-04    8.902e+00    8.091e-01   /
#      CHEB/ -7.357e-03   -3.713e-03   4.438e-03    -8.117e-04   -3.453e-04  /
#      CHEB/ 1.983e-04    -3.029e+00   -1.397e-02   7.022e-02    1.450e-02   /
#      CHEB/ -6.712e-03   -1.335e-03   1.086e-03    1.786e-04    -1.650e+00  /
#      CHEB/ -1.367e-01   -4.528e-04   1.070e-02    -7.025e-04   -1.331e-03  /
#      CHEB/ 2.925e-04    1.908e-04    -7.449e-01   -1.241e-02   -2.246e-02  /
#      CHEB/ -7.205e-03   1.242e-03    8.658e-04    -1.907e-04   -1.355e-04  /
#      CHEB/ -3.145e-01   4.843e-02    -1.016e-03   -8.249e-03   -1.082e-03  /
#      CHEB/ 8.834e-04    8.016e-05    -1.360e-04   -1.475e-01   2.663e-02   /
#      CHEB/ 8.761e-03    1.503e-04    -5.727e-04   -2.399e-04   2.068e-05   /
#      CHEB/ 4.711e-05    -8.828e-02   -1.240e-02   5.184e-04    3.208e-03   /
#      CHEB/ 1.106e-03    -3.096e-04   -1.742e-04   6.047e-05    -5.040e-02  /
#      CHEB/ -2.739e-02   -7.393e-03   1.532e-04    9.733e-04    1.732e-04   /
#      CHEB/ -8.997e-05   -9.049e-06   -1.529e-02   -1.602e-02   -6.692e-03  /
#      CHEB/ -2.568e-03   -2.710e-04   2.021e-04    7.568e-05    -1.533e-05  /

# Reaction 6
chebyshev_reaction('gQOOHa (+ M) <=> gQOOH[O] (+ M)',
                   Tmin=180.0, Tmax=1500.0,
                   Pmin=(0.01, 'atm'), Pmax=(98.692, 'atm'),
                   coeffs=[[-1.02200e+01,  7.79200e-01, -5.03700e-01,  3.30700e-02,  3.79700e-02, -7.36800e-03, -3.37000e-03,  1.21100e-03],
                           [ 2.44500e+00,  1.59000e+00,  2.81400e-01, -7.15200e-02, -7.56400e-03,  1.39700e-02, -8.01200e-04, -2.05400e-03],
                           [-4.27600e+00, -1.11000e-01,  2.07800e-01,  5.63000e-02, -2.24000e-02, -3.38700e-03,  4.53100e-03,  5.79500e-05],
                           [-2.41800e+00, -3.23700e-01, -3.32400e-02,  4.24300e-02,  6.27200e-03, -4.61000e-03, -7.31300e-05,  7.62100e-04],
                           [-1.05800e+00, -1.09300e-01, -9.97300e-02, -4.35300e-03,  1.20900e-02,  1.31900e-03, -1.51900e-03, -1.20300e-04],
                           [-3.80200e-01,  5.36700e-02, -5.74500e-02, -2.28600e-02,  5.03400e-03,  3.44400e-03, -4.55000e-04, -4.32800e-04],
                           [-1.38000e-01,  9.15200e-02, -6.87800e-03, -1.82300e-02, -1.57900e-03,  2.40500e-03,  6.11200e-04, -2.01800e-04],
                           [-7.55000e-02,  5.05600e-02,  1.81000e-02, -6.15600e-03, -4.26300e-03,  2.92100e-04,  8.00900e-04,  1.39500e-04],
                           [-5.61800e-02,  7.83200e-04,  1.76400e-02,  2.98700e-03, -2.77300e-03, -1.20500e-03,  1.62800e-04,  2.59400e-04],
                           [-3.15700e-02, -2.43800e-02,  5.24900e-03,  5.61100e-03,  2.30900e-04, -1.19700e-03, -4.64100e-04,  8.83300e-05]])

# Reaction 7
chebyshev_reaction('gQOOHg (+ M) <=> gQOOH[O] (+ M)',
                   Tmin=180.0, Tmax=1500.0,
                   Pmin=(0.01, 'atm'), Pmax=(98.692, 'atm'),
                   coeffs=[[-7.78900e+00, -7.59300e-02, -2.06800e-01,  3.04800e-02,  7.87500e-03, -1.92300e-03, -1.34100e-03,  4.59600e-04],
                           [-1.53600e+00,  1.73600e+00,  1.12600e-01,  6.39800e-04, -2.97600e-03,  6.74600e-04,  4.62200e-04, -1.41100e-04],
                           [-4.91400e+00, -1.09700e-01,  1.92000e-01,  2.58200e-02, -8.08400e-03, -1.71700e-03,  1.69300e-03,  1.50900e-04],
                           [-2.59400e+00, -5.57600e-01,  1.74800e-02,  2.11000e-02,  2.10300e-03, -3.70800e-04, -5.66000e-05,  1.08400e-04],
                           [-9.47300e-01, -3.22000e-01, -8.63000e-02,  6.97700e-03,  2.99300e-03,  9.30500e-04, -2.71900e-04, -1.91000e-04],
                           [-2.31400e-01, -2.82300e-03, -8.61900e-02, -4.81500e-03,  3.59200e-03,  1.01200e-04, -1.53900e-04, -9.83000e-05],
                           [-6.75800e-02,  1.37100e-01, -2.88400e-02, -1.66200e-02,  3.58900e-03,  6.68100e-04, -3.93900e-04,  7.81700e-05],
                           [-6.24400e-02,  8.82500e-02,  2.57800e-02, -1.55500e-02, -1.38700e-03,  1.80000e-03, -4.62700e-05,  4.74800e-05],
                           [-6.41700e-02, -8.54800e-03,  3.17000e-02, -2.48300e-04, -5.60300e-03,  9.67600e-04,  7.53900e-04, -9.92800e-05],
                           [-2.88700e-02, -4.48400e-02,  9.24900e-04,  1.05800e-02, -3.12000e-03, -1.00100e-03,  7.98300e-04, -8.61500e-05]])

# Reaction 8
chebyshev_reaction('gQOOHb (+ M) <=> gQOOH[O] (+ M)',
                   Tmin=180.0, Tmax=1500.0,
                   Pmin=(0.01, 'atm'), Pmax=(98.692, 'atm'),
                   coeffs=[[-1.18700e+01,  5.04800e-01, -2.16100e-01, -1.18600e-02,  1.30000e-02, -3.85900e-04, -1.59300e-03,  1.95900e-04],
                           [ 2.52500e+00,  1.96100e+00,  1.94000e-01, -1.64400e-02, -1.17900e-02, -2.12400e-04,  1.41400e-03,  1.11600e-04],
                           [-3.63100e+00, -8.48800e-02,  1.08100e-01,  5.83200e-02, -6.46800e-03, -5.51800e-03,  1.00200e-03,  6.98800e-04],
                           [-2.06800e+00, -3.15500e-01, -7.79100e-02,  1.59100e-02,  7.81100e-03,  2.63100e-05, -3.91200e-04, -8.79900e-05],
                           [-9.14500e-01, -7.05100e-02, -7.21800e-02, -1.99600e-02,  1.71300e-03,  2.66500e-03,  4.23900e-05, -3.23200e-04],
                           [-3.50500e-01,  6.15200e-02, -1.22800e-02, -1.49500e-02, -2.88100e-03,  8.80600e-04,  1.07600e-04, -8.20500e-05],
                           [-1.39100e-01,  5.97500e-02,  1.36700e-02, -1.49500e-03, -1.41500e-03, -5.28600e-04, -6.22600e-05,  6.40300e-05],
                           [-6.84300e-02,  1.68300e-02,  1.00700e-02,  4.04600e-03,  6.17700e-04, -5.06000e-04, -1.75400e-04,  6.14300e-05],
                           [-3.78800e-02, -1.08200e-02,  8.69500e-04,  2.18300e-03,  1.13000e-03,  8.53700e-05, -1.41600e-04, -2.15100e-05],
                           [-1.56300e-02, -1.28900e-02, -3.42400e-03, -1.05700e-03,  5.60100e-04,  3.12100e-04,  3.12900e-05, -4.32000e-05]])

# Reaction 9
chebyshev_reaction('O2 + gR (+ M) <=> gQOOH[O] (+ M)',
                   Tmin=180.0, Tmax=1500.0,
                   Pmin=(0.01, 'atm'), Pmax=(98.692, 'atm'),
                   coeffs=[[ 4.50300e+00,  7.11500e-01, -3.35700e-01, -2.52200e-02,  2.45100e-02,  4.63700e-04, -3.64800e-03,  5.64300e-04],
                           [-3.89500e+00,  7.40200e-01,  2.47400e-01,  4.30600e-02, -2.37100e-02, -4.58000e-03,  3.81100e-03, -3.96800e-06],
                           [-2.52600e+00,  7.57800e-02,  2.04800e-02,  1.06600e-02,  3.94800e-03,  1.02400e-03, -3.13500e-04, -1.59000e-04],
                           [-1.29400e+00,  9.22400e-03, -2.44900e-02, -8.27900e-03, -1.91500e-03,  1.24400e-04,  7.01600e-04,  2.02800e-04],
                           [-5.64200e-01,  8.12600e-02, -8.48600e-04, -9.67400e-03, -2.19700e-03, -1.47900e-04, -1.41600e-04,  5.29500e-06],
                           [-2.27300e-01,  7.66600e-02,  1.98400e-02, -2.67100e-03, -5.75500e-04,  2.05200e-04, -2.07400e-04, -1.52300e-04],
                           [-1.15700e-01,  3.03500e-02,  1.57600e-02,  3.31000e-03,  5.09600e-04,  2.56300e-04, -2.92000e-05, -7.08300e-05],
                           [-7.22100e-02, -1.84500e-02,  1.27000e-03,  3.63000e-03,  1.43000e-03,  5.74300e-05, -4.71000e-05,  4.79200e-05],
                           [-4.30800e-02, -3.26300e-02, -7.72800e-03, -6.56600e-04,  9.14600e-04,  2.73000e-04, -2.46900e-05,  6.45100e-06],
                           [-1.36400e-02, -1.84700e-02, -8.97100e-03, -2.52400e-03, -3.86600e-04,  1.50100e-04,  6.42900e-05,  1.09800e-06]])
#  gRO2(+M) <=> gQOOHa(+M)                             1.000e+00 0.000     0.000
#      TCHEB/ 180.000   1500.000 /
#      PCHEB/ 0.010     98.692   /
#      CHEB/ 10 8/
#      CHEB/ -6.881e+00   1.196e+00    -1.970e-01   3.174e-02    2.940e-03   /
#      CHEB/ 3.366e-04    -2.003e-04   -3.429e-04   6.959e+00    1.226e+00   /
#      CHEB/ 5.134e-02    -5.373e-02   1.989e-02    2.910e-03    -1.936e-03  /
#      CHEB/ -1.741e-04   -2.782e+00   2.468e-01    1.361e-01    3.838e-03   /
#      CHEB/ -8.116e-03   3.838e-03    6.672e-04    -6.876e-04   -1.780e+00  /
#      CHEB/ -1.692e-01   3.334e-02    3.837e-02    -2.808e-03   -2.118e-03  /
#      CHEB/ 9.851e-04    1.113e-04    -9.444e-01   -1.872e-01   -5.892e-02  /
#      CHEB/ 1.943e-02    9.673e-03    -1.647e-03   -7.651e-04   3.446e-04   /
#      CHEB/ -4.316e-01   -6.892e-02   -7.328e-02   -9.782e-03   8.869e-03   /
#      CHEB/ 1.985e-03    -7.486e-04   -1.617e-04   -1.683e-01   1.700e-02   /
#      CHEB/ -3.203e-02   -2.118e-02   2.254e-04    2.955e-03    4.274e-04   /
#      CHEB/ -2.838e-04   -6.196e-02   3.662e-02    9.022e-03    -1.276e-02  /
#      CHEB/ -5.287e-03   8.335e-04    8.993e-04    5.031e-05    -4.352e-02  /
#      CHEB/ 1.952e-02    1.884e-02    2.058e-03    -4.242e-03   -1.384e-03  /
#      CHEB/ 3.263e-04    2.497e-04    -9.470e-03   -1.511e-02   1.270e-02   /
#      CHEB/ 6.590e-03    2.599e-04    -1.354e-03   -5.653e-04   1.324e-04   /
#  gQOOH[O](+M) <=> gQOOHa(+M)                         1.000e+00 0.000     0.000
#      TCHEB/ 180.000   1500.000 /
#      PCHEB/ 0.010     98.692   /
#      CHEB/ 10 8/
#      CHEB/ -1.937e+00   7.792e-01    -5.037e-01   3.307e-02    3.797e-02   /
#      CHEB/ -7.368e-03   -3.370e-03   1.211e-03    -3.440e+00   1.590e+00   /
#      CHEB/ 2.814e-01    -7.152e-02   -7.564e-03   1.397e-02    -8.012e-04  /
#      CHEB/ -2.054e-03   -4.287e+00   -1.110e-01   2.078e-01    5.630e-02   /
#      CHEB/ -2.240e-02   -3.387e-03   4.531e-03    5.795e-05    -2.468e+00  /
#      CHEB/ -3.237e-01   -3.324e-02   4.243e-02    6.272e-03    -4.610e-03  /
#      CHEB/ -7.313e-05   7.621e-04    -1.084e+00   -1.093e-01   -9.973e-02  /
#      CHEB/ -4.353e-03   1.209e-02    1.319e-03    -1.519e-03   -1.203e-04  /
#      CHEB/ -3.894e-01   5.367e-02    -5.745e-02   -2.286e-02   5.034e-03   /
#      CHEB/ 3.444e-03    -4.550e-04   -4.328e-04   -1.413e-01   9.152e-02   /
#      CHEB/ -6.878e-03   -1.823e-02   -1.579e-03   2.405e-03    6.112e-04   /
#      CHEB/ -2.018e-04   -7.678e-02   5.056e-02    1.810e-02    -6.156e-03  /
#      CHEB/ -4.263e-03   2.921e-04    8.009e-04    1.395e-04    -5.664e-02  /
#      CHEB/ 7.832e-04    1.764e-02    2.987e-03    -2.773e-03   -1.205e-03  /