units(length='cm', time='s', quantity='mol', act_energy='kcal/mol')

ideal_gas(name='gas',
          elements="H D T C Ci O Oi N Ne Ar He Si S F Cl Br I X",
          species="""propene3ol       OH               disub_c4ether
                     H2O              disub_epoxy      gQOOHa
                     propene1ol       gQOOHb           ipropylOOH
                     galdoxy          galkene          CH2O
                     O2               gRO2             gQOOHg
                     gR               galdol           monosub_c4ether
                     HO2              gQOOH[O]""",
          reactions='all',
          initial_state=state(temperature=300.0, pressure=OneAtm))

#-------------------------------------------------------------------------------
# Element data
#-------------------------------------------------------------------------------

element(symbol='Ci', atomic_mass=13.003)
element(symbol='D', atomic_mass=2.014)
element(symbol='Oi', atomic_mass=18.0)
element(symbol='T', atomic_mass=3.016)
element(symbol='X', atomic_mass=195.083)
#-------------------------------------------------------------------------------
# Species data
#-------------------------------------------------------------------------------

species(name='propene3ol',
        atoms='C:3 H:6 O:1',
        thermo=(NASA([10.00, 444.81],
                     [ 3.92769709E+00,  4.89977303E-03,  1.13094874E-04,
                      -2.59008187E-07,  1.86205760E-10, -1.67824485E+04,
                       9.90805416E+00]),
                NASA([444.81, 3000.00],
                     [ 2.61720343E+00,  3.01777872E-02, -1.76511625E-05,
                       5.14864061E-09, -5.91153761E-13, -1.67993489E+04,
                       1.36683107E+01])))

species(name='OH',
        atoms='H:1 O:1',
        thermo=(NASA([10.00, 984.14],
                     [ 3.49686242E+00,  1.83973160E-04, -9.97634499E-07,
                       1.56942783E-09, -6.10128175E-13,  3.41673934E+03,
                       1.48093120E+00]),
                NASA([984.14, 3000.00],
                     [ 3.45221464E+00, -2.95124034E-04,  7.39418622E-07,
                      -2.89309866E-10,  3.53041498E-14,  3.45751599E+03,
                       1.85813897E+00])))

species(name='disub_c4ether',
        atoms='C:4 H:8 O:2',
        thermo=(NASA([10.00, 413.50],
                     [ 3.78241323E+00,  1.89501763E-02,  8.65302396E-05,
                      -1.80580575E-07,  1.13656264E-10, -3.88595342E+04,
                       1.09982450E+01]),
                NASA([413.50, 3000.00],
                     [ 4.29420885E-01,  5.13851903E-02, -3.11292293E-05,
                       9.11498284E-09, -1.03192718E-12, -3.85822398E+04,
                       2.42134976E+01])))

species(name='H2O',
        atoms='H:2 O:1',
        thermo=(NASA([10.00, 773.84],
                     [ 4.00473541E+00, -2.39729134E-04,  8.11862955E-07,
                       1.47891862E-09, -1.19783539E-12, -3.03533807E+04,
                      -9.96254147E-02]),
                NASA([773.84, 3000.00],
                     [ 3.52133374E+00,  1.05377009E-03,  6.40722099E-07,
                      -3.86240235E-10,  5.49243294E-14, -3.02424794E+04,
                       2.34173094E+00])))

species(name='disub_epoxy',
        atoms='C:4 H:8 O:2',
        thermo=(NASA([10.00, 549.41],
                     [ 3.89863211E+00,  5.97532637E-03,  1.66685676E-04,
                      -3.10743768E-07,  1.78330192E-10, -3.81317729E+04,
                       1.13847308E+01]),
                NASA([549.41, 3000.00],
                     [-6.40277648E-01,  6.05960003E-02, -4.13427220E-05,
                       1.31555461E-08, -1.57685017E-12, -3.79586560E+04,
                       2.76005436E+01])))

species(name='gQOOHa',
        atoms='C:4 H:9 O:3',
        thermo=(NASA([10.00, 160.74],
                     [ 3.80808147E+00,  2.31043884E-02,  5.26945984E-04,
                      -3.11500696E-06,  6.03881958E-09, -2.47400339E+04,
                       1.17645316E+01]),
                NASA([160.74, 3000.00],
                     [ 2.90630300E+00,  6.50241173E-02, -4.60073244E-05,
                       1.51330930E-08, -1.87074267E-12, -2.47362093E+04,
                       1.36838819E+01])))

species(name='propene1ol',
        atoms='C:3 H:6 O:1',
        thermo=(NASA([10.00, 459.42],
                     [ 3.91245344E+00,  5.85800161E-03,  1.15412006E-04,
                      -2.68014417E-07,  1.91800131E-10, -1.94062150E+04,
                       8.14807684E+00]),
                NASA([459.42, 3000.00],
                     [ 3.14049093E+00,  2.95550898E-02, -1.73843684E-05,
                       5.11506211E-09, -5.92966137E-13, -1.95144375E+04,
                       9.32215170E+00])))

species(name='gQOOHb',
        atoms='C:4 H:9 O:3',
        thermo=(NASA([10.00, 1018.67],
                     [ 3.99028351E+00,  4.29665712E-02,  2.28338778E-05,
                      -5.67914439E-08,  2.29383258E-11, -2.41308519E+04,
                       1.20326731E+01]),
                NASA([1018.67, 3000.00],
                     [ 1.38304153E+01,  3.88527019E-02, -2.19473905E-05,
                       5.78719895E-09, -5.85097740E-13, -2.79269366E+04,
                      -4.44147388E+01])))

species(name='ipropylOOH',
        atoms='C:3 H:7 O:2',
        thermo=(NASA([10.00, 405.01],
                     [ 3.30075623E+00,  7.58672756E-02, -3.35754269E-04,
                       8.05972164E-07, -6.68864582E-10,  3.93059790E+02,
                       1.43372849E+01]),
                NASA([405.01, 3000.00],
                     [ 2.51742509E+00,  3.72760950E-02, -2.12450220E-05,
                       5.83593926E-09, -6.22110649E-13,  8.36467396E+02,
                       2.20991392E+01])))

species(name='galdoxy',
        atoms='C:4 H:7 O:2',
        thermo=(NASA([10.00, 209.62],
                     [ 3.82641108E+00,  1.84758886E-02,  3.43073800E-04,
                      -1.82817005E-06,  2.98516720E-09, -1.73005006E+04,
                       1.17972706E+01]),
                NASA([209.62, 3000.00],
                     [ 4.22049016E+00,  4.03370149E-02, -2.36129482E-05,
                       6.72979114E-09, -7.47862493E-13, -1.73815703E+04,
                       8.97211724E+00])))

species(name='galkene',
        atoms='C:4 H:8 O:1',
        thermo=(NASA([10.00, 383.47],
                     [ 3.84035604E+00,  1.20378740E-02,  1.87486319E-04,
                      -5.44759148E-07,  4.80711015E-10, -2.30097684E+04,
                       1.02570291E+01]),
                NASA([383.47, 3000.00],
                     [ 4.00413385E+00,  3.79025144E-02, -2.15435710E-05,
                       6.15213311E-09, -6.97446345E-13, -2.32250577E+04,
                       6.98052628E+00])))

species(name='CH2O',
        atoms='C:1 H:2 O:1',
        thermo=(NASA([10.00, 601.31],
                     [ 4.03190845E+00, -1.93233367E-03,  8.89743345E-06,
                       2.98105926E-09, -7.90813886E-12, -1.42276270E+04,
                       3.47574660E+00]),
                NASA([601.31, 3000.00],
                     [ 1.40134195E+00,  9.48858016E-03, -4.43088317E-06,
                       9.48452194E-10, -7.43790219E-14, -1.38013869E+04,
                       1.57423780E+01])))

species(name='O2',
        atoms='O:2',
        thermo=(NASA([10.00, 605.96],
                     [ 3.50743498E+00, -4.43860349E-04,  1.45938058E-06,
                       1.61509333E-09, -2.32050052E-12, -9.24756224E+02,
                       4.72183634E+00]),
                NASA([605.96, 3000.00],
                     [ 2.87462882E+00,  2.17840991E-03, -1.18262921E-06,
                       2.86910493E-10, -2.53297146E-14, -8.19517838E+02,
                       7.69331810E+00])))

species(name='gRO2',
        atoms='C:4 H:9 O:3',
        thermo=(NASA([10.00, 177.33],
                     [ 3.70632176E+00,  3.49733664E-02,  4.64036392E-04,
                      -3.18637835E-06,  6.38178607E-09, -2.64183588E+04,
                       1.24459269E+01]),
                NASA([177.33, 3000.00],
                     [ 4.82062697E+00,  5.17179689E-02, -3.18386818E-05,
                       9.52247045E-09, -1.10180288E-12, -2.65237294E+04,
                       7.14082953E+00])))

species(name='gQOOHg',
        atoms='C:4 H:9 O:3',
        thermo=(NASA([10.00, 475.03],
                     [ 3.42273720E+00,  4.98344215E-02,  6.47820920E-05,
                      -2.49842966E-07,  1.98636537E-10, -2.16532359E+04,
                       1.41578583E+01]),
                NASA([475.03, 3000.00],
                     [ 5.94049074E+00,  5.53778585E-02, -3.71708255E-05,
                       1.17540477E-08, -1.40812095E-12, -2.21941902E+04,
                       7.09201218E-01])))

species(name='gR',
        atoms='C:4 H:9 O:1',
        thermo=(NASA([10.00, 638.24],
                     [ 3.37074633E+00,  5.17529751E-02, -6.54872940E-05,
                       6.88084237E-08, -3.21569794E-11, -1.29479263E+04,
                       1.14339669E+01]),
                NASA([638.24, 3000.00],
                     [ 3.99410860E+00,  4.06314915E-02, -2.23932510E-05,
                       6.08356263E-09, -6.49884708E-13, -1.28805516E+04,
                       9.85769960E+00])))

species(name='galdol',
        atoms='C:4 H:8 O:2',
        thermo=(NASA([10.00, 506.68],
                     [ 3.85380874E+00,  9.21272695E-03,  1.86712348E-04,
                      -3.96417049E-07,  2.55528268E-10, -4.58105079E+04,
                       1.24312743E+01]),
                NASA([506.68, 3000.00],
                     [ 1.49710213E+00,  5.65979142E-02, -3.87709084E-05,
                       1.23682052E-08, -1.48287964E-12, -4.59411173E+04,
                       1.85531759E+01])))

species(name='monosub_c4ether',
        atoms='C:4 H:8 O:2',
        thermo=(NASA([10.00, 380.36],
                     [ 3.47743996E+00,  6.08051311E-02, -2.78518945E-04,
                       8.23182713E-07, -7.87158031E-10, -2.94152351E+04,
                       1.06415154E+01]),
                NASA([380.36, 3000.00],
                     [-1.09346901E+00,  5.35985968E-02, -3.21081420E-05,
                       9.20818293E-09, -1.01830294E-12, -2.86676751E+04,
                       3.35312368E+01])))

species(name='HO2',
        atoms='H:1 O:2',
        thermo=(NASA([10.00, 891.11],
                     [ 4.02887004E+00, -1.75769289E-03,  1.08726004E-05,
                      -1.13812972E-08,  3.90113097E-12,  4.95165001E+02,
                       4.69302008E+00]),
                NASA([891.11, 3000.00],
                     [ 3.06571044E+00,  4.28505005E-03, -2.19325920E-06,
                       5.58882699E-10, -5.61246669E-14,  5.98557610E+02,
                       8.84564156E+00])))

species(name='gQOOH[O]',
        atoms='C:4 H:9 O:3',
        thermo=(NASA([10.00, 535.23],
                     [ 3.83107445E+00,  1.02302002E-02,  2.29377261E-04,
                      -4.59095575E-07,  2.77765018E-10, -1.80688241E+04,
                       1.41034859E+01]),
                NASA([535.23, 3000.00],
                     [-4.19283096E-01,  7.69784620E-02, -5.57279000E-05,
                       1.81378295E-08, -2.18295635E-12, -1.81149375E+04,
                       2.72711816E+01])))

#-------------------------------------------------------------------------------
# Reaction data
#-------------------------------------------------------------------------------

# Reaction 1
chebyshev_reaction('gQOOH[O] (+ M) <=> gRO2 (+ M)',
                   Tmin=180.0, Tmax=1500.0,
                   Pmin=(0.01, 'atm'), Pmax=(98.692, 'atm'),
                   coeffs=[[ 4.65900e+00,  2.31500e+00, -1.02800e-01,  2.30800e-03, -6.24100e-03, -4.51700e-04, -3.15000e-05,  5.56500e-05],
                           [-7.26000e+00,  6.15500e-01, -6.40000e-02,  1.89000e-02,  5.03600e-03, -4.43500e-05,  1.79500e-04,  1.71400e-04],
                           [-4.23900e+00,  1.91600e-01, -4.23400e-02, -1.56900e-02,  4.93500e-04, -8.01900e-04,  2.15200e-04,  1.29700e-04],
                           [-2.19500e+00, -5.57700e-02,  3.72700e-03, -8.54000e-03,  3.23200e-04,  7.83200e-05, -3.83200e-05,  1.93400e-04],
                           [-1.00800e+00, -1.74900e-01, -8.91500e-03, -1.05900e-03, -3.56800e-04,  5.77000e-04,  1.62800e-04,  1.43200e-04],
                           [-4.17200e-01, -1.49300e-01, -3.26500e-02, -3.03500e-05, -2.51100e-04,  1.59800e-04,  3.65500e-04,  1.04600e-04],
                           [-1.26000e-01, -5.46200e-02, -3.90600e-02, -4.56500e-03,  5.35400e-04,  1.28700e-05,  2.28300e-04,  1.26000e-04],
                           [ 9.65400e-03,  2.78600e-02, -2.11200e-02, -8.58900e-03, -4.55600e-04,  1.61700e-04,  1.13700e-04,  3.58500e-05],
                           [ 3.07200e-02,  6.03100e-02,  2.91900e-03, -8.04800e-03, -1.71500e-03,  1.65100e-04, -6.07400e-05, -6.97800e-05],
                           [-3.19900e-02,  5.28500e-02,  2.57300e-02,  2.11900e-04, -2.42400e-03, -4.52100e-04, -4.16000e-05, -9.21500e-05]])

# Reaction 2
chebyshev_reaction('gQOOHa (+ M) <=> gRO2 (+ M)',
                   Tmin=180.0, Tmax=1500.0,
                   Pmin=(0.01, 'atm'), Pmax=(98.692, 'atm'),
                   coeffs=[[ 3.64400e+00,  1.27100e+00, -1.46200e-01,  2.21000e-02,  8.09300e-03, -1.99500e-03, -5.18400e-04,  3.57300e-04],
                           [-6.39800e+00,  5.63700e-01,  1.85900e-01,  5.74100e-03, -1.03500e-02,  3.82200e-03,  1.49300e-03, -9.94000e-04],
                           [-4.00300e+00, -4.27800e-01,  9.07900e-03,  6.11700e-02,  4.14900e-03, -5.54900e-03,  3.87000e-04,  8.18100e-04],
                           [-1.92300e+00, -3.98200e-01, -1.06400e-01,  9.69800e-03,  1.24500e-02,  1.49200e-03, -1.04800e-03, -2.60500e-04],
                           [-8.46900e-01, -1.25100e-01, -6.91800e-02, -1.67800e-02, -2.24400e-04,  2.22100e-03,  1.27700e-03, -2.02400e-04],
                           [-3.32000e-01, -5.89400e-02, -3.35000e-02, -1.21800e-03, -3.51000e-04, -2.20900e-03,  3.09000e-04,  7.49600e-04],
                           [-9.64400e-02, -3.18100e-02, -4.36100e-02, -6.40600e-03,  5.39300e-03,  7.11200e-04, -8.68800e-04, -4.16200e-05],
                           [-1.30600e-02,  4.35500e-02, -3.31200e-02, -2.40000e-02, -6.86800e-04,  3.63900e-03,  7.23900e-04, -4.62100e-04],
                           [ 2.37300e-02,  6.78100e-02,  8.58300e-03, -1.59100e-02, -8.72900e-03, -3.14100e-04,  1.33600e-03,  4.21300e-04],
                           [ 1.53600e-02,  4.92400e-02,  3.43200e-02,  2.98400e-03, -6.36000e-03, -3.08000e-03, -2.67500e-04,  3.91000e-04]])

# Reaction 3
chebyshev_reaction('gQOOHg (+ M) <=> gRO2 (+ M)',
                   Tmin=180.0, Tmax=1500.0,
                   Pmin=(0.01, 'atm'), Pmax=(98.692, 'atm'),
                   coeffs=[[ 3.26800e+00,  1.07700e+00, -3.61800e-02,  1.61000e-02, -1.37700e-03, -1.25600e-03,  1.08500e-04,  4.15400e-05],
                           [-3.96700e+00,  1.59200e+00,  3.03800e-02,  1.61000e-02,  1.90700e-04, -2.50000e-03, -3.00400e-04,  1.26000e-04],
                           [-4.21600e+00,  4.72600e-01,  1.57400e-01,  1.32000e-02, -2.31900e-03, -1.18300e-03, -4.83000e-04, -8.62400e-05],
                           [-2.61800e+00, -3.24200e-01,  1.11700e-01,  3.91300e-02, -2.68800e-03, -1.91000e-03, -5.02600e-04, -4.71400e-05],
                           [-1.17100e+00, -4.91600e-01, -3.66700e-02,  4.58200e-02,  6.37600e-03, -2.72400e-03, -8.58700e-04, -2.35900e-05],
                           [-3.42500e-01, -2.74300e-01, -1.23700e-01,  1.45100e-02,  1.43800e-02, -2.30000e-04, -1.21200e-03, -1.40300e-04],
                           [-3.32500e-02, -1.85900e-02, -9.93600e-02, -2.13300e-02,  1.05500e-02,  3.83000e-03, -6.51700e-04, -4.32800e-04],
                           [ 2.81200e-02,  1.00300e-01, -2.51700e-02, -2.96900e-02, -5.12100e-04,  4.93100e-03,  7.52200e-04, -6.12700e-04],
                           [ 4.01100e-03,  8.88000e-02,  2.61300e-02, -1.30900e-02, -7.23500e-03,  2.07900e-03,  1.60800e-03, -3.28900e-04],
                           [-1.54500e-02,  2.91000e-02,  3.15700e-02,  5.59700e-03, -5.17300e-03, -1.45500e-03,  9.56400e-04,  2.28400e-04]])

# Reaction 4
chebyshev_reaction('gQOOHb (+ M) <=> gRO2 (+ M)',
                   Tmin=180.0, Tmax=1500.0,
                   Pmin=(0.01, 'atm'), Pmax=(98.692, 'atm'),
                   coeffs=[[-1.73000e+00,  1.11600e+00,  2.11500e-02, -1.78200e-02, -6.10000e-04,  1.58200e-03,  8.30100e-05, -1.23700e-04],
                           [ 1.33000e-01,  1.65400e+00,  8.34900e-02, -2.68900e-02,  1.81700e-03,  1.58700e-03, -3.18700e-04, -4.65900e-05],
                           [-3.21600e+00,  5.22600e-01,  1.03100e-01,  5.11900e-03,  2.91300e-03, -3.40600e-04, -3.27400e-04,  1.62900e-05],
                           [-2.13500e+00, -2.58700e-01,  2.78900e-02,  3.02400e-02,  5.89500e-03, -1.68800e-03, -4.76500e-04,  2.28500e-04],
                           [-1.12200e+00, -4.22300e-01, -6.18000e-02,  2.18100e-02,  8.01300e-03, -7.75700e-04, -3.99100e-04,  1.63700e-04],
                           [-4.17800e-01, -2.43400e-01, -9.00900e-02, -2.33200e-03,  4.93300e-03,  8.08800e-04,  1.66600e-04,  4.20600e-05],
                           [-8.26100e-02, -3.78100e-02, -6.37500e-02, -1.60800e-02, -1.34400e-04,  1.07600e-03,  5.52000e-04,  5.44200e-05],
                           [ 4.10800e-02,  6.79400e-02, -2.14300e-02, -1.55000e-02, -2.74800e-03,  4.97400e-04,  4.12500e-04,  3.10100e-05],
                           [ 2.98700e-02,  8.49000e-02,  1.09700e-02, -7.99200e-03, -3.15100e-03,  4.01400e-05,  1.74500e-04, -6.11600e-05],
                           [ 1.07500e-02,  5.56900e-02,  2.54100e-02,  4.89000e-04, -2.60100e-03, -4.47600e-04,  3.71200e-05, -4.93600e-05]])

# Reaction 5
chebyshev_reaction('O2 + gR (+ M) <=> gRO2 (+ M)',
                   Tmin=180.0, Tmax=1500.0,
                   Pmin=(0.01, 'atm'), Pmax=(98.692, 'atm'),
                   coeffs=[[ 7.43500e+00,  1.90200e+00, -5.60700e-01,  1.43500e-01, -2.33600e-02, -9.90000e-04,  1.65500e-03, -5.15100e-04],
                           [-4.05400e+00,  1.54500e+00,  4.37200e-02, -1.51100e-01,  5.57100e-02, -6.00000e-03, -1.43300e-03,  4.60200e-04],
                           [-2.48100e+00,  4.64700e-01,  2.19400e-01, -7.27700e-02, -2.04200e-03,  6.59700e-03, -1.53200e-03,  1.56300e-04],
                           [-1.40900e+00, -9.16700e-02,  1.59600e-01,  2.64000e-03, -1.36400e-02,  1.91600e-03, -1.13600e-04,  1.09100e-04],
                           [-6.93100e-01, -2.52200e-01,  4.51400e-02,  2.79000e-02, -5.35500e-03, -9.21800e-04, -2.54500e-04,  1.95000e-04],
                           [-2.63500e-01, -2.01900e-01, -3.06800e-02,  1.92500e-02,  2.23000e-03, -6.25100e-04, -4.80200e-04,  1.41400e-04],
                           [-5.16100e-02, -8.23300e-02, -5.24600e-02,  2.22000e-03,  3.97300e-03,  6.60600e-04, -3.49500e-04, -1.14300e-04],
                           [ 2.10600e-02,  1.53800e-02, -3.49500e-02, -9.45900e-03,  1.69200e-03,  1.58000e-03,  6.08300e-05, -3.35500e-04],
                           [ 2.33600e-02,  5.72700e-02, -4.33300e-03, -1.07000e-02, -1.67500e-03,  1.20000e-03,  5.12300e-04, -2.49700e-04],
                           [ 5.84900e-03,  4.79200e-02,  1.79100e-02, -3.70500e-03, -3.45300e-03, -1.06500e-04,  4.89000e-04, -6.12700e-06]])
#  gRO2(+M) <=> gQOOH[O](+M)                           1.000e+00 0.000     0.000
#      TCHEB/ 180.000   1500.000 /
#      PCHEB/ 0.010     98.692   /
#      CHEB/ 10 8/
#      CHEB/ -7.107e+00   2.315e+00    -1.028e-01   2.308e-03    -6.241e-03  /
#      CHEB/ -4.517e-04   -3.150e-05   5.565e-05    1.340e+00    6.155e-01   /
#      CHEB/ -6.400e-02   1.890e-02    5.036e-03    -4.435e-05   1.795e-04   /
#      CHEB/ 1.714e-04    -4.066e+00   1.916e-01    -4.234e-02   -1.569e-02  /
#      CHEB/ 4.935e-04    -8.019e-04   2.152e-04    1.297e-04    -2.070e+00  /
#      CHEB/ -5.577e-02   3.727e-03    -8.540e-03   3.232e-04    7.832e-05   /
#      CHEB/ -3.832e-05   1.934e-04    -9.539e-01   -1.749e-01   -8.915e-03  /
#      CHEB/ -1.059e-03   -3.568e-04   5.770e-04    1.628e-04    1.432e-04   /
#      CHEB/ -3.982e-01   -1.493e-01   -3.265e-02   -3.035e-05   -2.511e-04  /
#      CHEB/ 1.598e-04    3.655e-04    1.046e-04    -1.198e-01   -5.462e-02  /
#      CHEB/ -3.906e-02   -4.565e-03   5.354e-04    1.287e-05    2.283e-04   /
#      CHEB/ 1.260e-04    1.157e-02    2.786e-02    -2.112e-02   -8.589e-03  /
#      CHEB/ -4.556e-04   1.617e-04    1.137e-04    3.585e-05    3.118e-02   /
#      CHEB/ 6.031e-02    2.919e-03    -8.048e-03   -1.715e-03   1.651e-04   /
#      CHEB/ -6.074e-05   -6.978e-05   -3.202e-02   5.285e-02    2.573e-02   /
#      CHEB/ 2.119e-04    -2.424e-03   -4.521e-04   -4.160e-05   -9.215e-05  /

# Reaction 6
chebyshev_reaction('gQOOHa (+ M) <=> gQOOH[O] (+ M)',
                   Tmin=180.0, Tmax=1500.0,
                   Pmin=(0.01, 'atm'), Pmax=(98.692, 'atm'),
                   coeffs=[[-8.29400e+00,  2.42900e+00, -4.31200e-01, -5.10400e-02,  5.21300e-02,  2.28200e-03, -1.33000e-02,  1.35100e-03],
                           [-2.36300e+00,  5.19600e-01,  2.89100e-01,  5.81500e-02, -6.17100e-02,  5.81300e-03,  1.69600e-02, -4.17600e-03],
                           [-4.82900e+00, -2.00300e-01, -8.66400e-02,  4.14000e-02,  1.39900e-02, -1.36100e-02, -1.47500e-03,  4.26100e-03],
                           [-2.10400e+00, -1.61400e-01, -1.10200e-01, -3.13700e-02,  2.03600e-02,  5.99100e-03, -4.89600e-03, -7.58000e-04],
                           [-8.82500e-01, -4.48900e-02, -2.25200e-02, -3.14200e-02, -5.71900e-03,  6.33700e-03,  2.04200e-03, -1.31800e-03],
                           [-3.70500e-01, -1.01300e-01,  1.00200e-02,  8.79100e-03, -7.92100e-03, -2.43200e-03,  2.15600e-03,  6.18500e-04],
                           [-1.42800e-01, -9.97000e-02, -3.38500e-02,  1.12800e-02,  4.94300e-03, -2.04800e-03, -5.69100e-04,  6.36900e-04],
                           [-2.53000e-02,  3.65600e-03, -4.45200e-02, -1.42800e-02,  3.51500e-03,  2.51100e-03, -1.37200e-04, -2.80800e-04],
                           [ 2.85600e-02,  5.35300e-02, -4.72900e-03, -1.54300e-02, -5.07300e-03,  2.75300e-04,  7.04600e-04,  2.02800e-04],
                           [-1.89000e-02,  5.51800e-02,  3.30500e-02,  6.07200e-04, -4.90200e-03, -1.72200e-03, -2.23300e-04,  2.99300e-05]])

# Reaction 7
chebyshev_reaction('gQOOHg (+ M) <=> gQOOH[O] (+ M)',
                   Tmin=180.0, Tmax=1500.0,
                   Pmin=(0.01, 'atm'), Pmax=(98.692, 'atm'),
                   coeffs=[[-5.80000e+00,  1.34900e+00, -5.32100e-02,  4.34800e-02, -1.23300e-02, -6.05300e-03, -1.41300e-03,  1.30000e-04],
                           [-2.58800e+00,  1.61600e+00, -6.18600e-02,  2.38500e-02,  1.31800e-02, -6.81900e-04,  1.02500e-03, -2.26700e-05],
                           [-4.30100e+00,  4.01200e-01,  5.50900e-02, -2.19800e-02, -3.57300e-03, -1.17900e-03,  3.17700e-04,  5.73600e-04],
                           [-2.37700e+00, -2.54200e-01,  8.49000e-02,  3.09400e-02, -5.99600e-03, -3.43900e-03, -4.41200e-04,  8.57900e-05],
                           [-1.06400e+00, -4.07600e-01, -3.32100e-02,  4.91000e-02,  7.84100e-03, -3.67300e-03, -1.07200e-03, -4.20600e-05],
                           [-4.11700e-01, -2.36400e-01, -1.10800e-01,  1.58000e-02,  1.72500e-02,  1.73400e-04, -1.52100e-03, -1.91600e-04],
                           [-1.26000e-01, -2.43400e-02, -8.74500e-02, -2.29500e-02,  1.08100e-02,  5.05100e-03, -3.93000e-04, -5.81900e-04],
                           [-2.34200e-03,  7.99900e-02, -2.29700e-02, -3.19100e-02, -1.04300e-03,  5.64700e-03,  9.97400e-04, -6.16100e-04],
                           [ 8.22900e-03,  6.87900e-02,  2.72800e-02, -1.38500e-02, -9.70000e-03,  1.81300e-03,  2.08100e-03, -2.29300e-04],
                           [-4.81500e-02,  3.61600e-02,  3.32600e-02,  6.97800e-03, -5.23800e-03, -1.99000e-03,  8.18700e-04,  3.26500e-04]])

# Reaction 8
chebyshev_reaction('gQOOHb (+ M) <=> gQOOH[O] (+ M)',
                   Tmin=180.0, Tmax=1500.0,
                   Pmin=(0.01, 'atm'), Pmax=(98.692, 'atm'),
                   coeffs=[[-1.10000e+01,  1.57000e+00, -5.01400e-02,  1.76900e-02, -6.67900e-03, -2.95600e-03, -1.53900e-03, -2.80700e-04],
                           [ 1.45500e+00,  1.88700e+00, -4.02600e-02, -1.52900e-02,  1.28300e-02,  4.23900e-03,  7.93800e-04, -2.35600e-04],
                           [-3.33400e+00,  4.43700e-01, -1.74800e-02, -3.25100e-02, -5.49900e-03,  6.81700e-04,  1.22800e-03,  6.33200e-04],
                           [-1.98500e+00, -1.84500e-01, -3.90200e-04,  1.81200e-02, -3.53300e-04, -2.95700e-03, -2.26400e-04,  3.70800e-04],
                           [-1.02000e+00, -3.03300e-01, -3.90300e-02,  2.33800e-02,  8.63600e-03, -7.41700e-04, -9.54300e-04, -7.49900e-05],
                           [-4.72400e-01, -2.05200e-01, -5.75700e-02,  1.27700e-03,  6.35200e-03,  2.07800e-03, -3.84700e-05, -2.25600e-04],
                           [-1.64000e-01, -7.55400e-02, -4.54300e-02, -1.44200e-02, -8.33500e-04,  2.20700e-03,  1.08500e-03, -7.48200e-06],
                           [ 7.24000e-03,  2.12200e-02, -2.10200e-02, -1.64100e-02, -3.58100e-03,  7.28900e-04,  7.06000e-04,  2.11100e-04],
                           [ 4.10700e-02,  5.82300e-02,  9.38100e-03, -9.25700e-03, -5.14500e-03, -5.86800e-04,  3.81700e-04,  1.09600e-04],
                           [-1.94500e-02,  6.45200e-02,  2.80300e-02,  8.63000e-04, -2.16000e-03, -1.03900e-03, -3.50400e-04, -8.22500e-06]])

# Reaction 9
chebyshev_reaction('O2 + gR (+ M) <=> gQOOH[O] (+ M)',
                   Tmin=180.0, Tmax=1500.0,
                   Pmin=(0.01, 'atm'), Pmax=(98.692, 'atm'),
                   coeffs=[[-4.57400e-01,  2.02200e+00, -1.06900e-01,  1.48600e-01, -1.33800e-02, -1.79100e-02, -4.94500e-03, -3.36500e-03],
                           [-3.46800e+00,  5.14300e-01, -2.99800e-02, -2.52100e-01,  5.15800e-02,  2.34000e-02,  3.68700e-03,  3.13700e-03],
                           [-2.07900e+00,  2.32000e-01,  1.55400e-01, -7.00400e-02, -4.77600e-02,  1.52000e-02, -1.23500e-03, -1.39600e-04],
                           [-1.10500e+00, -1.60100e-02,  1.14700e-01,  4.93100e-02, -3.66200e-02, -3.68800e-03,  3.74200e-03, -2.03700e-03],
                           [-5.90500e-01, -1.41400e-01,  1.63600e-02,  6.24500e-02, -3.80400e-05, -1.03400e-02,  3.55200e-03, -6.05100e-04],
                           [-3.36600e-01, -1.36900e-01, -4.28800e-02,  2.80100e-02,  1.65400e-02, -6.47800e-03,  1.38700e-04,  1.17500e-03],
                           [-1.57300e-01, -7.20600e-02, -5.11300e-02, -5.94900e-03,  1.23300e-02, -5.98700e-05, -1.46600e-03,  1.38200e-03],
                           [-1.64600e-02, -6.25100e-03, -3.78300e-02, -2.07700e-02,  5.42800e-03,  3.81900e-03, -1.57700e-03,  6.73100e-04],
                           [ 2.66400e-02,  3.48500e-02,  1.39100e-03, -1.67200e-02, -5.75700e-03,  2.29400e-03, -3.45100e-04, -2.64100e-04],
                           [-2.29500e-02,  5.06600e-02,  1.98500e-02, -2.80800e-03, -4.46600e-03,  9.12200e-04,  1.32300e-04, -6.29800e-04]])
#  gRO2(+M) <=> gQOOHa(+M)                             1.000e+00 0.000     0.000
#      TCHEB/ 180.000   1500.000 /
#      PCHEB/ 0.010     98.692   /
#      CHEB/ 10 8/
#      CHEB/ 1.068e+00    1.271e+00    -1.462e-01   2.210e-02    8.093e-03   /
#      CHEB/ -1.995e-03   -5.184e-04   3.573e-04    -4.396e+00   5.637e-01   /
#      CHEB/ 1.859e-01    5.741e-03    -1.035e-02   3.822e-03    1.493e-03   /
#      CHEB/ -9.940e-04   -3.842e+00   -4.278e-01   9.079e-03    6.117e-02   /
#      CHEB/ 4.149e-03    -5.549e-03   3.870e-04    8.181e-04    -1.849e+00  /
#      CHEB/ -3.982e-01   -1.064e-01   9.698e-03    1.245e-02    1.492e-03   /
#      CHEB/ -1.048e-03   -2.605e-04   -8.183e-01   -1.251e-01   -6.918e-02  /
#      CHEB/ -1.678e-02   -2.244e-04   2.221e-03    1.277e-03    -2.024e-04  /
#      CHEB/ -3.222e-01   -5.894e-02   -3.350e-02   -1.218e-03   -3.510e-04  /
#      CHEB/ -2.209e-03   3.090e-04    7.496e-04    -9.354e-02   -3.181e-02  /
#      CHEB/ -4.361e-02   -6.406e-03   5.393e-03    7.112e-04    -8.688e-04  /
#      CHEB/ -4.162e-05   -1.243e-02   4.355e-02    -3.312e-02   -2.400e-02  /
#      CHEB/ -6.868e-04   3.639e-03    7.239e-04    -4.621e-04   2.373e-02   /
#      CHEB/ 6.781e-02    8.583e-03    -1.591e-02   -8.729e-03   -3.141e-04  /
#      CHEB/ 1.336e-03    4.213e-04    1.525e-02    4.924e-02    3.432e-02   /
#      CHEB/ 2.984e-03    -6.360e-03   -3.080e-03   -2.675e-04   3.910e-04   /
#  gQOOH[O](+M) <=> gQOOHa(+M)                         1.000e+00 0.000     0.000
#      TCHEB/ 180.000   1500.000 /
#      PCHEB/ 0.010     98.692   /
#      CHEB/ 10 8/
#      CHEB/ 8.967e-01    2.429e+00    -4.312e-01   -5.104e-02   5.213e-02   /
#      CHEB/ 2.282e-03    -1.330e-02   1.351e-03    -8.962e+00   5.196e-01   /
#      CHEB/ 2.891e-01    5.815e-02    -6.171e-02   5.813e-03    1.696e-02   /
#      CHEB/ -4.176e-03   -4.841e+00   -2.003e-01   -8.664e-02   4.140e-02   /
#      CHEB/ 1.399e-02    -1.361e-02   -1.475e-03   4.261e-03    -2.155e+00  /
#      CHEB/ -1.614e-01   -1.102e-01   -3.137e-02   2.036e-02    5.991e-03   /
#      CHEB/ -4.896e-03   -7.580e-04   -9.076e-01   -4.489e-02   -2.252e-02  /
#      CHEB/ -3.142e-02   -5.719e-03   6.337e-03    2.042e-03    -1.318e-03  /
#      CHEB/ -3.798e-01   -1.013e-01   1.002e-02    8.791e-03    -7.921e-03  /
#      CHEB/ -2.432e-03   2.156e-03    6.185e-04    -1.461e-01   -9.970e-02  /
#      CHEB/ -3.385e-02   1.128e-02    4.943e-03    -2.048e-03   -5.691e-04  /
#      CHEB/ 6.369e-04    -2.659e-02   3.656e-03    -4.452e-02   -1.428e-02  /
#      CHEB/ 3.515e-03    2.511e-03    -1.372e-04   -2.808e-04   2.809e-02   /
#      CHEB/ 5.353e-02    -4.729e-03   -1.543e-02   -5.073e-03   2.753e-04   /