units(length='cm', time='s', quantity='mol', act_energy='kcal/mol')

ideal_gas(name='gas',
          elements="H D T C Ci O Oi N Ne Ar He Si S F Cl Br I X",
          species="""propene3ol       OH               disub_c4ether
                     H2O              disub_epoxy      gQOOHa
                     propene1ol       gQOOHb           ipropylOOH
                     galdoxy          galkene          CH2O
                     O2               gRO2             gQOOHg
                     gR               galdol           monosub_c4ether
                     HO2              gQOOH[O]""",
          reactions='all',
          initial_state=state(temperature=300.0, pressure=OneAtm))

#-------------------------------------------------------------------------------
# Element data
#-------------------------------------------------------------------------------

element(symbol='Ci', atomic_mass=13.003)
element(symbol='D', atomic_mass=2.014)
element(symbol='Oi', atomic_mass=18.0)
element(symbol='T', atomic_mass=3.016)
element(symbol='X', atomic_mass=195.083)
#-------------------------------------------------------------------------------
# Species data
#-------------------------------------------------------------------------------

species(name='propene3ol',
        atoms='C:3 H:6 O:1',
        thermo=(NASA([10.00, 444.81],
                     [ 3.92769709E+00,  4.89977303E-03,  1.13094874E-04,
                      -2.59008187E-07,  1.86205760E-10, -1.68361129E+04,
                       9.90805416E+00]),
                NASA([444.81, 3000.00],
                     [ 2.61720343E+00,  3.01777872E-02, -1.76511625E-05,
                       5.14864061E-09, -5.91153761E-13, -1.68530134E+04,
                       1.36683107E+01])))

species(name='OH',
        atoms='H:1 O:1',
        thermo=(NASA([10.00, 984.14],
                     [ 3.49686242E+00,  1.83973160E-04, -9.97634499E-07,
                       1.56942783E-09, -6.10128175E-13,  3.41673934E+03,
                       1.48093120E+00]),
                NASA([984.14, 3000.00],
                     [ 3.45221464E+00, -2.95124034E-04,  7.39418622E-07,
                      -2.89309866E-10,  3.53041498E-14,  3.45751599E+03,
                       1.85813897E+00])))

species(name='disub_c4ether',
        atoms='C:4 H:8 O:2',
        thermo=(NASA([10.00, 413.50],
                     [ 3.78241323E+00,  1.89501763E-02,  8.65302396E-05,
                      -1.80580575E-07,  1.13656264E-10, -4.16994862E+04,
                       1.09982450E+01]),
                NASA([413.50, 3000.00],
                     [ 4.29420885E-01,  5.13851903E-02, -3.11292293E-05,
                       9.11498284E-09, -1.03192718E-12, -4.14221919E+04,
                       2.42134976E+01])))

species(name='H2O',
        atoms='H:2 O:1',
        thermo=(NASA([10.00, 773.84],
                     [ 4.00473541E+00, -2.39729134E-04,  8.11862955E-07,
                       1.47891862E-09, -1.19783539E-12, -3.03533807E+04,
                      -9.96254147E-02]),
                NASA([773.84, 3000.00],
                     [ 3.52133374E+00,  1.05377009E-03,  6.40722099E-07,
                      -3.86240235E-10,  5.49243294E-14, -3.02424794E+04,
                       2.34173094E+00])))

species(name='disub_epoxy',
        atoms='C:4 H:8 O:2',
        thermo=(NASA([10.00, 549.41],
                     [ 3.89863211E+00,  5.97532637E-03,  1.66685676E-04,
                      -3.10743768E-07,  1.78330192E-10, -3.70695912E+04,
                       1.13847308E+01]),
                NASA([549.41, 3000.00],
                     [-6.40277648E-01,  6.05960003E-02, -4.13427220E-05,
                       1.31555461E-08, -1.57685017E-12, -3.68964743E+04,
                       2.76005436E+01])))

species(name='gQOOHa',
        atoms='C:4 H:9 O:3',
        thermo=(NASA([10.00, 160.74],
                     [ 3.80808147E+00,  2.31043884E-02,  5.26945984E-04,
                      -3.11500696E-06,  6.03881958E-09, -2.49186931E+04,
                       1.17645316E+01]),
                NASA([160.74, 3000.00],
                     [ 2.90630300E+00,  6.50241173E-02, -4.60073244E-05,
                       1.51330930E-08, -1.87074267E-12, -2.49148685E+04,
                       1.36838819E+01])))

species(name='propene1ol',
        atoms='C:3 H:6 O:1',
        thermo=(NASA([10.00, 459.42],
                     [ 3.91245344E+00,  5.85800161E-03,  1.15412006E-04,
                      -2.68014417E-07,  1.91800131E-10, -1.91746055E+04,
                       8.14807684E+00]),
                NASA([459.42, 3000.00],
                     [ 3.14049093E+00,  2.95550898E-02, -1.73843684E-05,
                       5.11506211E-09, -5.92966137E-13, -1.92828281E+04,
                       9.32215170E+00])))

species(name='gQOOHb',
        atoms='C:4 H:9 O:3',
        thermo=(NASA([10.00, 1018.67],
                     [ 3.99028351E+00,  4.29665712E-02,  2.28338778E-05,
                      -5.67914439E-08,  2.29383258E-11, -2.23217420E+04,
                       1.20326731E+01]),
                NASA([1018.67, 3000.00],
                     [ 1.38304153E+01,  3.88527019E-02, -2.19473905E-05,
                       5.78719895E-09, -5.85097740E-13, -2.61178268E+04,
                      -4.44147388E+01])))

species(name='ipropylOOH',
        atoms='C:3 H:7 O:2',
        thermo=(NASA([10.00, 405.01],
                     [ 3.30075623E+00,  7.58672756E-02, -3.35754269E-04,
                       8.05972164E-07, -6.68864582E-10, -9.93223476E+02,
                       1.43372849E+01]),
                NASA([405.01, 3000.00],
                     [ 2.51742509E+00,  3.72760950E-02, -2.12450220E-05,
                       5.83593926E-09, -6.22110649E-13, -5.49815870E+02,
                       2.20991392E+01])))

species(name='galdoxy',
        atoms='C:4 H:7 O:2',
        thermo=(NASA([10.00, 209.62],
                     [ 3.82641108E+00,  1.84758886E-02,  3.43073800E-04,
                      -1.82817005E-06,  2.98516720E-09, -1.67175085E+04,
                       1.17972706E+01]),
                NASA([209.62, 3000.00],
                     [ 4.22049016E+00,  4.03370149E-02, -2.36129482E-05,
                       6.72979114E-09, -7.47862493E-13, -1.67985782E+04,
                       8.97211724E+00])))

species(name='galkene',
        atoms='C:4 H:8 O:1',
        thermo=(NASA([10.00, 383.47],
                     [ 3.84035604E+00,  1.20378740E-02,  1.87486319E-04,
                      -5.44759148E-07,  4.80711015E-10, -2.19562632E+04,
                       1.02570291E+01]),
                NASA([383.47, 3000.00],
                     [ 4.00413385E+00,  3.79025144E-02, -2.15435710E-05,
                       6.15213311E-09, -6.97446345E-13, -2.21715526E+04,
                       6.98052628E+00])))

species(name='CH2O',
        atoms='C:1 H:2 O:1',
        thermo=(NASA([10.00, 601.31],
                     [ 4.03190845E+00, -1.93233367E-03,  8.89743345E-06,
                       2.98105926E-09, -7.90813886E-12, -1.42276270E+04,
                       3.47574660E+00]),
                NASA([601.31, 3000.00],
                     [ 1.40134195E+00,  9.48858016E-03, -4.43088317E-06,
                       9.48452194E-10, -7.43790219E-14, -1.38013869E+04,
                       1.57423780E+01])))

species(name='O2',
        atoms='O:2',
        thermo=(NASA([10.00, 605.96],
                     [ 3.50743498E+00, -4.43860349E-04,  1.45938058E-06,
                       1.61509333E-09, -2.32050052E-12, -9.24756224E+02,
                       4.72183634E+00]),
                NASA([605.96, 3000.00],
                     [ 2.87462882E+00,  2.17840991E-03, -1.18262921E-06,
                       2.86910493E-10, -2.53297146E-14, -8.19517838E+02,
                       7.69331810E+00])))

species(name='gRO2',
        atoms='C:4 H:9 O:3',
        thermo=(NASA([10.00, 177.33],
                     [ 3.70632176E+00,  3.49733664E-02,  4.64036392E-04,
                      -3.18637835E-06,  6.38178607E-09, -2.91150677E+04,
                       1.24459269E+01]),
                NASA([177.33, 3000.00],
                     [ 4.82062697E+00,  5.17179689E-02, -3.18386818E-05,
                       9.52247045E-09, -1.10180288E-12, -2.92204383E+04,
                       7.14082953E+00])))

species(name='gQOOHg',
        atoms='C:4 H:9 O:3',
        thermo=(NASA([10.00, 475.03],
                     [ 3.42273720E+00,  4.98344215E-02,  6.47820920E-05,
                      -2.49842966E-07,  1.98636537E-10, -2.14618944E+04,
                       1.41578583E+01]),
                NASA([475.03, 3000.00],
                     [ 5.94049074E+00,  5.53778585E-02, -3.71708255E-05,
                       1.17540477E-08, -1.40812095E-12, -2.20028486E+04,
                       7.09201218E-01])))

species(name='gR',
        atoms='C:4 H:9 O:1',
        thermo=(NASA([10.00, 638.24],
                     [ 3.37074633E+00,  5.17529751E-02, -6.54872940E-05,
                       6.88084237E-08, -3.21569794E-11, -1.20955270E+04,
                       1.14339669E+01]),
                NASA([638.24, 3000.00],
                     [ 3.99410860E+00,  4.06314915E-02, -2.23932510E-05,
                       6.08356263E-09, -6.49884708E-13, -1.20281523E+04,
                       9.85769960E+00])))

species(name='galdol',
        atoms='C:4 H:8 O:2',
        thermo=(NASA([10.00, 506.68],
                     [ 3.85380874E+00,  9.21272695E-03,  1.86712348E-04,
                      -3.96417049E-07,  2.55528268E-10, -4.72173138E+04,
                       1.24312743E+01]),
                NASA([506.68, 3000.00],
                     [ 1.49710213E+00,  5.65979142E-02, -3.87709084E-05,
                       1.23682052E-08, -1.48287964E-12, -4.73479232E+04,
                       1.85531759E+01])))

species(name='monosub_c4ether',
        atoms='C:4 H:8 O:2',
        thermo=(NASA([10.00, 380.36],
                     [ 3.47743996E+00,  6.08051311E-02, -2.78518945E-04,
                       8.23182713E-07, -7.87158031E-10, -3.32380290E+04,
                       1.06415154E+01]),
                NASA([380.36, 3000.00],
                     [-1.09346901E+00,  5.35985968E-02, -3.21081420E-05,
                       9.20818293E-09, -1.01830294E-12, -3.24904689E+04,
                       3.35312368E+01])))

species(name='HO2',
        atoms='H:1 O:2',
        thermo=(NASA([10.00, 891.11],
                     [ 4.02887004E+00, -1.75769289E-03,  1.08726004E-05,
                      -1.13812972E-08,  3.90113097E-12,  4.95165001E+02,
                       4.69302008E+00]),
                NASA([891.11, 3000.00],
                     [ 3.06571044E+00,  4.28505005E-03, -2.19325920E-06,
                       5.58882699E-10, -5.61246669E-14,  5.98557610E+02,
                       8.84564156E+00])))

species(name='gQOOH[O]',
        atoms='C:4 H:9 O:3',
        thermo=(NASA([10.00, 535.23],
                     [ 3.83107445E+00,  1.02302002E-02,  2.29377261E-04,
                      -4.59095575E-07,  2.77765018E-10, -2.00388063E+04,
                       1.41034859E+01]),
                NASA([535.23, 3000.00],
                     [-4.19283096E-01,  7.69784620E-02, -5.57279000E-05,
                       1.81378295E-08, -2.18295635E-12, -2.00849196E+04,
                       2.72711816E+01])))

#-------------------------------------------------------------------------------
# Reaction data
#-------------------------------------------------------------------------------

# Reaction 1
chebyshev_reaction('gQOOH[O] (+ M) <=> gRO2 (+ M)',
                   Tmin=180.0, Tmax=1500.0,
                   Pmin=(0.01, 'atm'), Pmax=(98.692, 'atm'),
                   coeffs=[[ 4.44600e+00,  4.45600e-01, -6.67000e-02,  1.15700e-03, -1.82100e-03,  6.31200e-04, -1.33700e-04,  1.22400e-05],
                           [ 3.57000e+00,  7.91600e-01, -1.03500e-01, -3.82900e-03, -1.72000e-03,  6.10500e-04, -1.31200e-04,  1.25600e-05],
                           [-3.31900e-01,  5.58200e-01, -4.26800e-02, -1.25900e-02,  8.77500e-04, -3.51000e-04,  3.72000e-05,  1.14800e-05],
                           [-5.91500e-01,  3.14100e-01,  2.55400e-03, -1.18000e-02,  7.83300e-04, -6.11400e-04,  3.53200e-05,  2.72200e-05],
                           [-2.50400e-01,  1.37900e-01,  1.59600e-02, -3.28600e-03, -6.15900e-04, -5.07600e-04, -2.47600e-05,  2.38400e-05],
                           [-9.97300e-02,  4.13400e-02,  1.00300e-02,  3.97100e-03, -8.19500e-04, -5.18600e-04, -5.18900e-05,  2.73700e-06],
                           [-4.00800e-02,  1.25400e-03,  1.07500e-03,  5.69200e-03,  1.97100e-04, -5.01900e-04, -8.14500e-05, -1.24400e-05],
                           [-7.23500e-03, -9.41000e-03, -3.53600e-03,  3.69100e-03,  1.04300e-03, -2.62100e-04, -1.09900e-04, -2.12400e-05],
                           [ 4.35500e-03, -9.01200e-03, -3.89500e-03,  1.24200e-03,  1.02100e-03,  5.08500e-05, -8.53100e-05, -2.96200e-05],
                           [ 6.07400e-03, -6.46700e-03, -2.44200e-03, -3.37400e-05,  4.74600e-04,  1.98900e-04, -1.16100e-05, -2.91900e-05]])

# Reaction 2
chebyshev_reaction('gQOOHa (+ M) <=> gRO2 (+ M)',
                   Tmin=180.0, Tmax=1500.0,
                   Pmin=(0.01, 'atm'), Pmax=(98.692, 'atm'),
                   coeffs=[[ 5.66500e+00,  4.32000e-01, -1.21300e-01,  3.33400e-03,  3.03900e-03,  5.46300e-04, -2.26300e-05, -7.76900e-05],
                           [ 2.02900e+00,  7.51700e-01, -1.97000e-01, -1.77200e-03,  5.75000e-03,  1.46900e-03, -6.95100e-05, -1.63900e-04],
                           [ 2.90900e-01,  4.91200e-01, -9.73500e-02, -1.68400e-02,  3.80100e-03,  2.26200e-03, -2.83300e-05, -1.89200e-04],
                           [-1.78200e-01,  2.34900e-01, -1.31800e-02, -2.17800e-02, -1.99200e-04,  2.59300e-03,  2.47600e-04, -2.06100e-04],
                           [-1.47100e-01,  7.85200e-02,  2.03100e-02, -1.35500e-02, -3.89200e-03,  1.79300e-03,  6.57200e-04, -1.50100e-04],
                           [-4.98900e-02,  1.82700e-02,  1.69800e-02, -2.22600e-03, -4.67400e-03,  2.44500e-04,  8.45500e-04,  5.54400e-06],
                           [-8.36200e-03,  4.74600e-03,  5.38100e-03,  3.53400e-03, -2.80500e-03, -9.59900e-04,  6.13700e-04,  1.77800e-04],
                           [-1.70000e-03,  1.64300e-03, -2.44500e-04,  3.51700e-03, -5.45900e-04, -1.18900e-03,  1.58000e-04,  2.43600e-04],
                           [-5.38400e-04, -1.53100e-03, -5.49600e-04,  1.63500e-03,  5.70700e-04, -7.34400e-04, -1.76200e-04,  1.74300e-04],
                           [ 1.98500e-03, -3.99300e-03,  3.65700e-04,  3.97700e-04,  6.31300e-04, -2.21600e-04, -2.47200e-04,  5.33200e-05]])

# Reaction 3
chebyshev_reaction('gQOOHg (+ M) <=> gRO2 (+ M)',
                   Tmin=180.0, Tmax=1500.0,
                   Pmin=(0.01, 'atm'), Pmax=(98.692, 'atm'),
                   coeffs=[[ 4.55800e+00,  2.56500e-01, -1.03700e-01,  1.97900e-02,  1.97800e-04, -6.83500e-04,  1.48000e-05,  5.52400e-05],
                           [ 4.17400e+00,  4.61100e-01, -1.80600e-01,  3.04400e-02,  2.42100e-03, -1.63400e-03,  4.16600e-05,  1.11500e-04],
                           [-5.83500e-02,  3.38600e-01, -1.19900e-01,  1.15900e-02,  5.70800e-03, -1.74700e-03, -4.61700e-05,  1.28200e-04],
                           [-2.47100e-01,  2.07400e-01, -6.02500e-02, -3.14200e-03,  6.46300e-03, -1.05300e-03, -2.63100e-04,  1.38600e-04],
                           [-7.26200e-02,  1.07600e-01, -2.11100e-02, -8.45300e-03,  4.46000e-03, -6.06600e-07, -4.02300e-04,  9.67700e-05],
                           [-3.51400e-02,  4.66100e-02, -2.50000e-03, -7.28400e-03,  1.79400e-03,  6.55100e-04, -3.32600e-04,  1.48200e-05],
                           [-1.46100e-02,  1.48900e-02,  3.63000e-03, -4.22200e-03,  4.34300e-05,  7.11300e-04, -1.42800e-04, -4.93000e-05],
                           [-1.78600e-03,  4.63300e-04,  4.34200e-03, -1.77000e-03, -5.83200e-04,  4.45200e-04,  1.36200e-05, -6.28100e-05],
                           [ 2.87700e-03, -5.08600e-03,  3.37500e-03, -3.88600e-04, -5.73000e-04,  1.68600e-04,  7.29400e-05, -4.04300e-05],
                           [ 4.72200e-03, -6.55200e-03,  2.21000e-03,  2.37700e-04, -3.73800e-04,  5.53300e-06,  6.29600e-05, -1.28000e-05]])

# Reaction 4
chebyshev_reaction('gQOOHb (+ M) <=> gRO2 (+ M)',
                   Tmin=180.0, Tmax=1500.0,
                   Pmin=(0.01, 'atm'), Pmax=(98.692, 'atm'),
                   coeffs=[[ 4.12400e+00,  7.86900e-01, -1.00300e-01, -6.92800e-03,  1.55100e-04,  1.75700e-04, -3.97700e-05, -3.11200e-05],
                           [ 1.97100e+00,  1.25400e+00, -1.37400e-01, -1.02200e-02, -1.27600e-03, -2.56700e-05, -3.24100e-05, -3.63100e-05],
                           [ 3.06900e-01,  5.89900e-01, -2.48200e-02,  1.23700e-03, -3.47000e-03, -9.12000e-04, -4.18000e-05,  1.85500e-05],
                           [-1.04100e-01,  9.05100e-02,  2.65200e-02,  1.26200e-02, -1.79300e-03, -1.54600e-03, -2.85900e-04,  3.28900e-05],
                           [-9.70300e-02, -6.35200e-02,  1.20000e-02,  1.17300e-02,  2.93900e-03, -1.01700e-03, -5.74400e-04, -5.09100e-05],
                           [-4.49300e-02, -2.67900e-02, -1.04900e-02,  1.35700e-03,  5.23500e-03,  3.67500e-04, -4.89100e-04, -1.69300e-04],
                           [-1.86800e-02,  1.93300e-02, -1.31800e-02, -5.56500e-03,  3.14000e-03,  1.16800e-03, -3.16300e-05, -1.76100e-04],
                           [-5.85900e-03,  2.12400e-02, -5.49100e-03, -4.52900e-03, -3.49700e-05,  8.08000e-04,  3.13600e-04, -5.14800e-05],
                           [ 2.75000e-03,  3.19400e-03,  5.60900e-04, -8.19300e-04, -1.34600e-03,  9.98400e-05,  2.71600e-04,  6.28300e-05],
                           [ 7.72400e-03, -9.56900e-03,  2.81800e-03,  9.43500e-04, -1.00200e-03, -2.00100e-04,  5.89600e-05,  7.29800e-05]])

# Reaction 5
chebyshev_reaction('O2 + gR (+ M) <=> gRO2 (+ M)',
                   Tmin=180.0, Tmax=1500.0,
                   Pmin=(0.01, 'atm'), Pmax=(98.692, 'atm'),
                   coeffs=[[ 1.09300e+01,  2.06300e-01, -8.13900e-02,  1.56200e-02, -1.19900e-03,  4.56400e-04, -1.72600e-04, -3.22500e-05],
                           [-8.09600e-01,  3.27500e-01, -1.16300e-01,  1.31400e-02,  3.05900e-03, -5.08600e-04, -2.38900e-05, -1.11100e-04],
                           [-3.07300e-01,  1.89500e-01, -5.04100e-02, -5.89900e-03,  6.02800e-03, -5.92300e-04, -1.35100e-04, -3.70100e-05],
                           [-1.26300e-01,  8.97900e-02, -1.31400e-02, -9.77500e-03,  3.71400e-03,  3.74600e-04, -2.77700e-04, -2.05600e-05],
                           [-5.47400e-02,  4.08600e-02, -3.01500e-03, -5.01300e-03,  5.74000e-04,  7.68200e-04, -1.26100e-04, -7.11700e-05],
                           [-2.30900e-02,  1.74700e-02, -1.30900e-03, -1.22400e-03, -4.95000e-04,  3.92600e-04,  8.33900e-05, -7.34500e-05],
                           [-6.48200e-03,  3.12700e-03,  4.25800e-04, -2.03100e-04, -2.75600e-04, -7.02000e-07,  1.12800e-04, -1.61600e-05],
                           [ 2.61300e-03, -5.61200e-03,  1.88000e-03, -5.27300e-05, -3.68100e-05, -1.01700e-04,  3.27200e-05,  2.76700e-05],
                           [ 6.61000e-03, -9.09100e-03,  1.92600e-03,  3.07700e-04, -4.60200e-05, -7.01500e-05, -2.22100e-05,  3.03300e-05],
                           [ 7.62400e-03, -9.31500e-03,  1.20000e-03,  6.78700e-04, -7.07500e-05, -6.26600e-05, -2.82000e-05,  1.68200e-05]])
#  gRO2(+M) <=> gQOOH[O](+M)                           1.000e+00 0.000     0.000
#      TCHEB/ 180.000   1500.000 /
#      PCHEB/ 0.010     98.692   /
#      CHEB/ 10 8/
#      CHEB/ -8.303e+00   4.456e-01    -6.670e-02   1.157e-03    -1.821e-03  /
#      CHEB/ 6.312e-04    -1.337e-04   1.224e-05    1.294e+01    7.916e-01   /
#      CHEB/ -1.035e-01   -3.829e-03   -1.720e-03   6.105e-04    -1.312e-04  /
#      CHEB/ 1.256e-05    -1.589e-01   5.582e-01    -4.268e-02   -1.259e-02  /
#      CHEB/ 8.775e-04    -3.510e-04   3.720e-05    1.148e-05    -4.668e-01  /
#      CHEB/ 3.141e-01    2.554e-03    -1.180e-02   7.833e-04    -6.114e-04  /
#      CHEB/ 3.532e-05    2.722e-05    -1.967e-01   1.379e-01    1.596e-02   /
#      CHEB/ -3.286e-03   -6.159e-04   -5.076e-04   -2.476e-05   2.384e-05   /
#      CHEB/ -8.068e-02   4.134e-02    1.003e-02    3.971e-03    -8.195e-04  /
#      CHEB/ -5.186e-04   -5.189e-05   2.737e-06    -3.387e-02   1.254e-03   /
#      CHEB/ 1.075e-03    5.692e-03    1.971e-04    -5.019e-04   -8.145e-05  /
#      CHEB/ -1.244e-05   -5.317e-03   -9.410e-03   -3.536e-03   3.691e-03   /
#      CHEB/ 1.043e-03    -2.621e-04   -1.099e-04   -2.124e-05   4.817e-03   /
#      CHEB/ -9.012e-03   -3.895e-03   1.242e-03    1.021e-03    5.085e-05   /
#      CHEB/ -8.531e-05   -2.962e-05   6.045e-03    -6.467e-03   -2.442e-03  /
#      CHEB/ -3.374e-05   4.746e-04    1.989e-04    -1.161e-05   -2.919e-05  /

# Reaction 6
chebyshev_reaction('gQOOHa (+ M) <=> gQOOH[O] (+ M)',
                   Tmin=180.0, Tmax=1500.0,
                   Pmin=(0.01, 'atm'), Pmax=(98.692, 'atm'),
                   coeffs=[[-5.92800e+00, -8.32500e-01, -2.65500e-01,  2.33500e-02, -2.11500e-03,  2.40800e-04,  4.60300e-04, -1.19800e-04],
                           [ 9.68000e+00,  1.65900e+00, -2.27600e-01, -4.37300e-02,  1.16600e-02,  1.25200e-03, -6.81900e-04,  2.26500e-04],
                           [-5.23100e-01,  8.61500e-01,  1.48200e-03, -5.55800e-02, -1.01700e-03,  5.11800e-03, -3.97000e-04, -3.60900e-04],
                           [-5.85900e-01,  3.81900e-01,  4.30300e-02, -1.68500e-02, -9.42300e-03,  1.50700e-03,  1.59500e-03, -4.68200e-04],
                           [-2.01500e-01,  1.24700e-01,  2.98800e-02,  4.92100e-03, -5.37200e-03, -2.04700e-03,  1.25200e-03,  2.16600e-04],
                           [-7.20000e-02,  1.72700e-02,  8.36700e-03,  9.85700e-03, -5.59900e-04, -1.99900e-03,  2.34400e-05,  4.18700e-04],
                           [-2.83200e-02, -1.18300e-02, -4.18400e-03,  6.74000e-03,  1.42400e-03, -7.09500e-04, -4.15000e-04,  1.50100e-04],
                           [-1.71000e-02, -1.43500e-02, -5.58700e-03,  2.16600e-03,  1.30700e-03,  1.24800e-04, -2.31500e-04, -5.20100e-05],
                           [-1.23300e-02, -1.11300e-02, -2.74500e-03, -1.91900e-04,  4.38900e-04,  2.73700e-04,  7.80900e-06, -5.29500e-05],
                           [-1.03900e-02, -7.83700e-03, -5.43100e-04, -3.66000e-04, -1.77800e-04,  8.50700e-05,  7.96500e-05,  1.17000e-05]])

# Reaction 7
chebyshev_reaction('gQOOHg (+ M) <=> gQOOH[O] (+ M)',
                   Tmin=180.0, Tmax=1500.0,
                   Pmin=(0.01, 'atm'), Pmax=(98.692, 'atm'),
                   coeffs=[[-3.50600e+00, -1.12900e+00, -1.79100e-01,  1.78300e-02, -2.02800e-03,  2.16800e-04, -1.94700e-04,  8.78300e-05],
                           [ 7.73300e+00,  1.45100e+00, -2.57400e-01,  1.02700e-02,  2.96500e-03, -1.52200e-03,  1.63800e-05,  1.25400e-04],
                           [-4.16800e-01,  8.64500e-01, -9.10400e-02, -1.57200e-02,  7.24300e-03, -2.30400e-03,  7.63200e-06,  1.66800e-04],
                           [-4.57300e-01,  3.65700e-01,  1.03300e-03, -1.18200e-02,  3.70300e-03, -1.25500e-03, -2.57100e-04,  1.46700e-04],
                           [-1.58300e-01,  9.84800e-02,  1.22000e-02,  2.63000e-03,  7.20700e-04, -5.04500e-04, -3.36500e-04,  4.03600e-05],
                           [-3.82300e-02,  4.45700e-03, -1.41900e-03,  6.73400e-03,  1.40100e-03, -1.16500e-04, -3.48000e-04, -4.60200e-05],
                           [-1.31400e-02, -1.35200e-02, -6.81800e-03,  1.94800e-03,  2.18300e-03,  5.35800e-04, -3.12800e-04, -9.91700e-05],
                           [-1.34900e-02, -1.19300e-02, -3.33700e-03, -2.47200e-03,  1.19200e-03,  1.00500e-03, -1.12600e-04, -1.21100e-04],
                           [-1.31700e-02, -8.77400e-03,  8.11900e-04, -3.01500e-03, -2.60500e-04,  8.18900e-04,  1.25700e-04, -8.18200e-05],
                           [-1.13600e-02, -6.85300e-03,  2.32400e-03, -1.55800e-03, -8.21300e-04,  2.79000e-04,  1.97300e-04, -7.14700e-06]])

# Reaction 8
chebyshev_reaction('gQOOHb (+ M) <=> gQOOH[O] (+ M)',
                   Tmin=180.0, Tmax=1500.0,
                   Pmin=(0.01, 'atm'), Pmax=(98.692, 'atm'),
                   coeffs=[[-5.93900e+00, -1.41000e-01, -2.95000e-01, -3.27900e-03,  4.93900e-03, -1.72900e-04, -7.81300e-04,  1.36700e-04],
                           [ 7.98600e+00,  1.98300e+00, -6.46600e-02, -4.54900e-02, -1.10600e-02,  3.21000e-03,  6.16500e-04, -4.52100e-04],
                           [-3.07000e-01,  7.05200e-01,  6.30000e-02,  6.79400e-03, -7.54500e-03, -4.69000e-03,  6.49100e-04,  4.03000e-04],
                           [-5.28200e-01,  2.77400e-01,  7.00000e-03,  1.17600e-02,  8.49200e-03, -2.86900e-03, -1.61400e-03,  5.75900e-05],
                           [-1.77600e-01,  5.25300e-02,  7.80400e-03,  1.28400e-03,  4.52800e-03,  1.93400e-03, -5.97500e-04, -5.54800e-04],
                           [-4.04600e-02, -2.10800e-02,  4.51800e-04,  3.80800e-03, -5.98000e-04,  1.19400e-03,  5.89000e-04, -1.68700e-04],
                           [-6.59900e-03, -2.51300e-02, -6.84700e-03,  3.89400e-03,  5.90900e-05, -3.19800e-04,  2.89300e-04,  1.73500e-04],
                           [-4.26300e-03, -1.92500e-02, -4.79400e-03,  3.92700e-04,  1.20400e-03, -2.03100e-04, -2.01100e-04,  9.15800e-05],
                           [-8.60500e-03, -1.29500e-02, -1.37200e-03, -1.37200e-03,  7.85900e-04,  2.90700e-04, -1.88200e-04, -5.78300e-05],
                           [-7.11700e-03, -8.95300e-03,  4.08800e-04, -1.04800e-03,  2.90400e-05,  2.95600e-04,  1.89300e-05, -6.56700e-05]])

# Reaction 9
chebyshev_reaction('O2 + gR (+ M) <=> gQOOH[O] (+ M)',
                   Tmin=180.0, Tmax=1500.0,
                   Pmin=(0.01, 'atm'), Pmax=(98.692, 'atm'),
                   coeffs=[[ 4.77000e+00, -1.10200e+00, -1.76400e-01,  1.66400e-02, -3.86000e-03,  1.32300e-03, -2.97000e-04, -3.89200e-05],
                           [ 5.92600e-01,  1.34300e+00, -1.79900e-01, -1.51400e-02,  5.81900e-03, -1.05100e-03,  1.39200e-04, -1.20200e-04],
                           [-4.26500e-01,  6.35400e-01,  2.54600e-03, -2.88000e-02,  3.20300e-03, -7.86000e-05, -1.87000e-04, -1.94900e-05],
                           [-2.91700e-01,  1.62200e-01,  5.38000e-02, -7.20900e-03, -2.09800e-03, -4.00100e-05, -8.97300e-05, -3.94900e-05],
                           [-7.44100e-02, -3.18000e-03,  2.09000e-02,  1.08800e-02, -1.04300e-03, -7.80300e-04, -1.16200e-04, -2.74800e-05],
                           [-4.85200e-03, -2.80400e-02, -4.75000e-03,  8.10800e-03,  2.72800e-03, -4.54700e-04, -3.34700e-04, -4.47800e-05],
                           [-4.43000e-03, -1.90700e-02, -8.83700e-03,  6.70400e-04,  2.81100e-03,  6.00600e-04, -2.55600e-04, -1.12900e-04],
                           [-1.16000e-02, -1.24600e-02, -3.83800e-03, -2.49400e-03,  9.50900e-04,  8.10200e-04,  6.63300e-05, -8.90600e-05],
                           [-1.24400e-02, -8.96600e-03, -5.79800e-04, -1.58700e-03, -3.74100e-04,  3.53600e-04,  1.94200e-04,  1.24400e-05],
                           [-9.86000e-03, -8.23700e-03,  8.33100e-04, -3.42700e-04, -4.46200e-04, -9.10700e-05,  1.00800e-04,  6.64600e-05]])
#  gRO2(+M) <=> gQOOHa(+M)                             1.000e+00 0.000     0.000
#      TCHEB/ 180.000   1500.000 /
#      PCHEB/ 0.010     98.692   /
#      CHEB/ 10 8/
#      CHEB/ -3.134e-01   4.320e-01    -1.213e-01   3.334e-03    3.039e-03   /
#      CHEB/ 5.463e-04    -2.263e-05   -7.769e-05   6.704e+00    7.517e-01   /
#      CHEB/ -1.970e-01   -1.772e-03   5.750e-03    1.469e-03    -6.951e-05  /
#      CHEB/ -1.639e-04   4.527e-01    4.912e-01    -9.735e-02   -1.684e-02  /
#      CHEB/ 3.801e-03    2.262e-03    -2.833e-05   -1.892e-04   -1.040e-01  /
#      CHEB/ 2.349e-01    -1.318e-02   -2.178e-02   -1.992e-04   2.593e-03   /
#      CHEB/ 2.476e-04    -2.061e-04   -1.186e-01   7.852e-02    2.031e-02   /
#      CHEB/ -1.355e-02   -3.892e-03   1.793e-03    6.572e-04    -1.501e-04  /
#      CHEB/ -4.009e-02   1.827e-02    1.698e-02    -2.226e-03   -4.674e-03  /
#      CHEB/ 2.445e-04    8.455e-04    5.544e-06    -5.456e-03   4.746e-03   /
#      CHEB/ 5.381e-03    3.534e-03    -2.805e-03   -9.599e-04   6.137e-04   /
#      CHEB/ 1.778e-04    -1.069e-03   1.643e-03    -2.445e-04   3.517e-03   /
#      CHEB/ -5.459e-04   -1.189e-03   1.580e-04    2.436e-04    -5.419e-04  /
#      CHEB/ -1.531e-03   -5.496e-04   1.635e-03    5.707e-04    -7.344e-04  /
#      CHEB/ -1.762e-04   1.743e-04    1.868e-03    -3.993e-03   3.657e-04   /
#      CHEB/ 3.977e-04    6.313e-04    -2.216e-04   -2.472e-04   5.332e-05   /
#  gQOOH[O](+M) <=> gQOOHa(+M)                         1.000e+00 0.000     0.000
#      TCHEB/ 180.000   1500.000 /
#      PCHEB/ 0.010     98.692   /
#      CHEB/ 10 8/
#      CHEB/ 8.422e-01    -8.325e-01   -2.655e-01   2.335e-02    -2.115e-03  /
#      CHEB/ 2.408e-04    4.603e-04    -1.198e-04   4.983e+00    1.659e+00   /
#      CHEB/ -2.276e-01   -4.373e-02   1.166e-02    1.252e-03    -6.819e-04  /
#      CHEB/ 2.265e-04    -5.344e-01   8.615e-01    1.482e-03    -5.558e-02  /
#      CHEB/ -1.017e-03   5.118e-03    -3.970e-04   -3.609e-04   -6.365e-01  /
#      CHEB/ 3.819e-01    4.303e-02    -1.685e-02   -9.423e-03   1.507e-03   /
#      CHEB/ 1.595e-03    -4.682e-04   -2.266e-01   1.247e-01    2.988e-02   /
#      CHEB/ 4.921e-03    -5.372e-03   -2.047e-03   1.252e-03    2.166e-04   /
#      CHEB/ -8.126e-02   1.727e-02    8.367e-03    9.857e-03    -5.599e-04  /
#      CHEB/ -1.999e-03   2.344e-05    4.187e-04    -3.163e-02   -1.183e-02  /
#      CHEB/ -4.184e-03   6.740e-03    1.424e-03    -7.095e-04   -4.150e-04  /
#      CHEB/ 1.501e-04    -1.839e-02   -1.435e-02   -5.587e-03   2.166e-03   /
#      CHEB/ 1.307e-03    1.248e-04    -2.315e-04   -5.201e-05   -1.279e-02  /
#      CHEB/ -1.113e-02   -2.745e-03   -1.919e-04   4.389e-04    2.737e-04   /