units(length='cm', time='s', quantity='mol', act_energy='kcal/mol')

ideal_gas(name='gas',
          elements="H D T C Ci O Oi N Ne Ar He Si S F Cl Br I X",
          species="""OH             bQOOH[O]       acetone
                     H2O            balkoxyketone  ibutenol
                     trisub_epoxy   bQOOHg         CH2O
                     galkene        O2             bR
                     bQOOHa         bRO2           disub_epoxy
                     HO2""",
          reactions='all',
          initial_state=state(temperature=300.0, pressure=OneAtm))

#-------------------------------------------------------------------------------
# Element data
#-------------------------------------------------------------------------------

element(symbol='Ci', atomic_mass=13.003)
element(symbol='D', atomic_mass=2.014)
element(symbol='Oi', atomic_mass=18.0)
element(symbol='T', atomic_mass=3.016)
element(symbol='X', atomic_mass=195.083)
#-------------------------------------------------------------------------------
# Species data
#-------------------------------------------------------------------------------

species(name='OH',
        atoms='H:1 O:1',
        thermo=(NASA([10.00, 984.14],
                     [ 3.49686242E+00,  1.83973160E-04, -9.97634499E-07,
                       1.56942783E-09, -6.10128175E-13,  3.41673934E+03,
                       1.48093120E+00]),
                NASA([984.14, 3000.00],
                     [ 3.45221464E+00, -2.95124034E-04,  7.39418622E-07,
                      -2.89309866E-10,  3.53041498E-14,  3.45751599E+03,
                       1.85813897E+00])))

species(name='bQOOH[O]',
        atoms='C:4 H:9 O:3',
        thermo=(NASA([10.00, 338.69],
                     [ 3.60915854E+00,  3.39069566E-02,  2.22227265E-04,
                      -8.23527342E-07,  8.56246333E-10, -2.26260460E+04,
                       1.23284605E+01]),
                NASA([338.69, 3000.00],
                     [ 5.03198881E+00,  5.46235886E-02, -3.56935806E-05,
                       1.12371751E-08, -1.35390171E-12, -2.29376287E+04,
                       3.82760723E+00])))

species(name='acetone',
        atoms='C:3 H:6 O:1',
        thermo=(NASA([10.00, 414.35],
                     [ 3.73496166E+00,  3.05743218E-02, -1.26253585E-04,
                       3.66080978E-07, -3.31430437E-10, -2.84707661E+04,
                       8.24936012E+00]),
                NASA([414.35, 3000.00],
                     [ 1.70010292E-01,  3.28431468E-02, -1.80960132E-05,
                       4.82960690E-09, -5.02388538E-13, -2.78993830E+04,
                       2.56372653E+01])))

species(name='H2O',
        atoms='H:2 O:1',
        thermo=(NASA([10.00, 773.84],
                     [ 4.00473541E+00, -2.39729134E-04,  8.11862955E-07,
                       1.47891862E-09, -1.19783539E-12, -3.03533807E+04,
                      -9.96254147E-02]),
                NASA([773.84, 3000.00],
                     [ 3.52133374E+00,  1.05377009E-03,  6.40722099E-07,
                      -3.86240235E-10,  5.49243294E-14, -3.02424794E+04,
                       2.34173094E+00])))

species(name='balkoxyketone',
        atoms='C:4 H:7 O:2',
        thermo=(NASA([10.00, 269.93],
                     [ 3.81931151E+00,  1.68519318E-02,  2.42742224E-04,
                      -9.64821161E-07,  1.18509335E-09, -2.03968163E+04,
                       1.20521854E+01]),
                NASA([269.93, 3000.00],
                     [ 3.57555944E+00,  4.28868089E-02, -2.65390705E-05,
                       7.99659117E-09, -9.32983470E-13, -2.04653444E+04,
                       1.13957990E+01])))

species(name='ibutenol',
        atoms='C:4 H:8 O:1',
        thermo=(NASA([10.00, 135.97],
                     [ 3.95714996E+00,  5.72646980E-03,  4.63611760E-04,
                      -3.04137514E-06,  6.85019471E-09, -2.44752709E+04,
                       8.21931848E+00]),
                NASA([135.97, 3000.00],
                     [ 3.32467612E+00,  3.69033556E-02, -1.89960416E-05,
                       4.73417677E-09, -4.59705291E-13, -2.44696923E+04,
                       9.58133237E+00])))

species(name='trisub_epoxy',
        atoms='C:4 H:8 O:2',
        thermo=(NASA([10.00, 209.19],
                     [ 3.75295042E+00,  2.37546930E-02,  1.26610110E-04,
                      -4.78364365E-07,  5.79468168E-10, -3.93971733E+04,
                       1.12739684E+01]),
                NASA([209.19, 3000.00],
                     [ 2.64185254E+00,  4.50006531E-02, -2.57361066E-05,
                       7.15266054E-09, -7.72980731E-13, -3.93506877E+04,
                       1.48960343E+01])))

species(name='bQOOHg',
        atoms='C:4 H:9 O:3',
        thermo=(NASA([10.00, 441.09],
                     [ 3.56595280E+00,  3.36073467E-02,  2.03462772E-04,
                      -5.98977617E-07,  4.83271168E-10, -2.30016633E+04,
                       1.33537891E+01]),
                NASA([441.09, 3000.00],
                     [ 6.09031192E+00,  5.80517622E-02, -4.06392697E-05,
                       1.32574026E-08, -1.62501077E-12, -2.36848487E+04,
                      -1.97849715E+00])))

species(name='CH2O',
        atoms='C:1 H:2 O:1',
        thermo=(NASA([10.00, 601.31],
                     [ 4.03190845E+00, -1.93233367E-03,  8.89743345E-06,
                       2.98105926E-09, -7.90813886E-12, -1.42276270E+04,
                       3.47574660E+00]),
                NASA([601.31, 3000.00],
                     [ 1.40134195E+00,  9.48858016E-03, -4.43088317E-06,
                       9.48452194E-10, -7.43790219E-14, -1.38013869E+04,
                       1.57423780E+01])))

species(name='galkene',
        atoms='C:4 H:8 O:1',
        thermo=(NASA([10.00, 383.47],
                     [ 3.84035604E+00,  1.20378740E-02,  1.87486319E-04,
                      -5.44759148E-07,  4.80711015E-10, -2.05083791E+04,
                       1.02570291E+01]),
                NASA([383.47, 3000.00],
                     [ 4.00413385E+00,  3.79025144E-02, -2.15435710E-05,
                       6.15213311E-09, -6.97446345E-13, -2.07236684E+04,
                       6.98052628E+00])))

species(name='O2',
        atoms='O:2',
        thermo=(NASA([10.00, 605.96],
                     [ 3.50743498E+00, -4.43860349E-04,  1.45938058E-06,
                       1.61509333E-09, -2.32050052E-12, -9.24756224E+02,
                       4.72183634E+00]),
                NASA([605.96, 3000.00],
                     [ 2.87462882E+00,  2.17840991E-03, -1.18262921E-06,
                       2.86910493E-10, -2.53297146E-14, -8.19517838E+02,
                       7.69331810E+00])))

species(name='bR',
        atoms='C:4 H:9 O:1',
        thermo=(NASA([10.00, 483.43],
                     [ 3.38164846E+00,  5.97142637E-02, -1.58320095E-04,
                       3.04908893E-07, -2.13091806E-10, -1.50910427E+04,
                       1.09226843E+01]),
                NASA([483.43, 3000.00],
                     [ 2.33428824E+00,  4.22094427E-02, -2.28029290E-05,
                       6.04614564E-09, -6.30240159E-13, -1.46839607E+04,
                       1.83772893E+01])))

species(name='bQOOHa',
        atoms='C:4 H:9 O:3',
        thermo=(NASA([10.00, 390.53],
                     [ 3.54969236E+00,  3.76592474E-02,  1.76622653E-04,
                      -5.98063750E-07,  5.45069236E-10, -2.78567415E+04,
                       1.31518761E+01]),
                NASA([390.53, 3000.00],
                     [ 5.33564209E+00,  5.64935715E-02, -3.83214298E-05,
                       1.22990604E-08, -1.49549987E-12, -2.82793514E+04,
                       2.59015836E+00])))

species(name='bRO2',
        atoms='C:4 H:9 O:3',
        thermo=(NASA([10.00, 461.39],
                     [ 3.53964713E+00,  3.88723795E-02,  9.57420148E-05,
                      -2.80380499E-07,  2.09647462E-10, -3.08937329E+04,
                       1.18803618E+01]),
                NASA([461.39, 3000.00],
                     [ 3.47201723E+00,  6.00510247E-02, -4.00567321E-05,
                       1.25663813E-08, -1.49496682E-12, -3.11066797E+04,
                       9.77903975E+00])))

species(name='disub_epoxy',
        atoms='C:4 H:8 O:2',
        thermo=(NASA([10.00, 549.41],
                     [ 3.89863211E+00,  5.97532637E-03,  1.66685676E-04,
                      -3.10743768E-07,  1.78330192E-10, -3.50487159E+04,
                       1.13847308E+01]),
                NASA([549.41, 3000.00],
                     [-6.40277648E-01,  6.05960003E-02, -4.13427220E-05,
                       1.31555461E-08, -1.57685017E-12, -3.48755990E+04,
                       2.76005436E+01])))

species(name='HO2',
        atoms='H:1 O:2',
        thermo=(NASA([10.00, 891.11],
                     [ 4.02887004E+00, -1.75769289E-03,  1.08726004E-05,
                      -1.13812972E-08,  3.90113097E-12,  4.95165001E+02,
                       4.69302008E+00]),
                NASA([891.11, 3000.00],
                     [ 3.06571044E+00,  4.28505005E-03, -2.19325920E-06,
                       5.58882699E-10, -5.61246669E-14,  5.98557610E+02,
                       8.84564156E+00])))

#-------------------------------------------------------------------------------
# Reaction data
#-------------------------------------------------------------------------------

# Reaction 1
chebyshev_reaction('bQOOHg (+ M) <=> bRO2 (+ M)',
                   Tmin=180.0, Tmax=1500.0,
                   Pmin=(0.01, 'atm'), Pmax=(98.692, 'atm'),
                   coeffs=[[ 3.07300e+00,  8.92100e-01, -8.05400e-02, -1.13700e-02,  1.24900e-03,  1.03500e-04,  5.52700e-05,  4.63700e-05],
                           [ 1.27200e+00,  1.49500e+00, -1.07300e-01, -2.48600e-02,  1.08900e-03,  6.32000e-04,  1.16100e-04,  5.20500e-05],
                           [-2.77800e-01,  8.60900e-01, -8.12000e-03, -2.31000e-02, -2.28700e-03,  1.15800e-03,  2.16200e-04, -1.58300e-05],
                           [-4.82700e-01,  3.13600e-01,  4.08700e-02, -1.09200e-02, -4.71300e-03,  6.49400e-04,  4.12000e-04, -8.81800e-06],
                           [-2.72700e-01,  5.54700e-02,  2.78100e-02,  2.08900e-03, -3.87500e-03, -5.71300e-04,  4.37000e-04,  8.55600e-05],
                           [-8.41000e-02,  2.66000e-03,  2.34900e-03,  6.00000e-03, -1.27200e-03, -1.17400e-03,  1.72000e-04,  1.50200e-04],
                           [-6.37800e-03,  7.03600e-03, -5.52900e-03,  3.48700e-03,  2.42600e-04, -7.90200e-04, -1.15200e-04,  1.01100e-04],
                           [ 8.92700e-03,  4.37200e-03, -2.38200e-03,  1.28700e-03,  2.52300e-04, -2.02300e-04, -1.81000e-04,  3.14100e-06],
                           [ 7.73200e-03, -3.10400e-03, -1.71600e-04,  9.36700e-04,  1.10300e-05,  2.79800e-05, -9.84200e-05, -4.33600e-05],
                           [ 5.21300e-03, -5.62300e-03, -3.45800e-04,  8.26500e-04,  5.50700e-05,  2.92100e-05, -3.14600e-05, -3.24000e-05]])

# Reaction 2
chebyshev_reaction('bQOOHa (+ M) <=> bRO2 (+ M)',
                   Tmin=180.0, Tmax=1500.0,
                   Pmin=(0.01, 'atm'), Pmax=(98.692, 'atm'),
                   coeffs=[[ 2.61800e+00,  8.89100e-01, -7.95200e-02, -1.63900e-02,  5.45900e-04,  7.17500e-04,  7.56700e-05, -3.29400e-05],
                           [ 1.84600e+00,  1.43100e+00, -8.61800e-02, -3.00700e-02, -1.66900e-03,  1.13800e-03,  2.51100e-04, -1.47900e-05],
                           [ 4.50900e-02,  7.17200e-01,  3.63200e-02, -1.67800e-02, -6.39300e-03,  2.53700e-05,  3.84100e-04,  1.07200e-04],
                           [-3.62200e-01,  1.86100e-01,  7.58300e-02,  2.74400e-03, -6.20000e-03, -1.55300e-03,  2.01700e-04,  2.06700e-04],
                           [-2.89900e-01,  1.13100e-02,  3.68000e-02,  1.11800e-02, -7.39800e-04, -1.97400e-03, -3.04200e-04,  1.57200e-04],
                           [-1.52200e-01,  1.97800e-02, -3.45100e-03,  5.68800e-03,  3.28800e-03, -7.07400e-04, -5.72500e-04, -3.73000e-05],
                           [-5.99900e-02,  3.57400e-02, -1.21700e-02, -1.07100e-03,  2.53000e-03,  5.98400e-04, -2.89800e-04, -1.70200e-04],
                           [-1.46300e-02,  2.07100e-02, -4.94300e-03, -2.07200e-03,  1.25500e-04,  6.79700e-04,  1.11700e-04, -1.08400e-04],
                           [ 1.04200e-03,  1.74300e-03,  7.11200e-04, -4.07400e-04, -7.35700e-04,  1.15200e-04,  1.84700e-04,  2.08500e-05],
                           [ 2.37400e-03, -4.60500e-03,  1.53500e-03,  3.15600e-04, -2.72200e-04, -1.63800e-04,  3.77400e-05,  5.63600e-05]])

# Reaction 3
chebyshev_reaction('bQOOH[O] (+ M) <=> bRO2 (+ M)',
                   Tmin=180.0, Tmax=1500.0,
                   Pmin=(0.01, 'atm'), Pmax=(98.692, 'atm'),
                   coeffs=[[ 8.36200e+00,  9.68200e-01, -2.08000e-01,  1.18900e-02,  6.43600e-03, -1.17800e-03, -3.63600e-04,  6.09100e-05],
                           [-1.17300e-01,  1.12100e+00, -7.26600e-02, -5.04000e-02,  9.15500e-03,  4.16900e-03, -1.53700e-03, -3.74700e-04],
                           [-8.28500e-01,  4.61100e-01,  7.52200e-02, -2.85500e-02, -1.03700e-02,  3.96100e-03,  1.23300e-03, -6.63700e-04],
                           [-4.97400e-01,  2.02600e-01,  5.30900e-02,  3.27800e-03, -9.80500e-03, -1.51200e-03,  1.76300e-03,  2.44700e-04],
                           [-2.69400e-01,  9.50100e-02,  2.09900e-02,  8.43900e-03, -2.28100e-03, -2.77100e-03,  2.80700e-04,  5.99800e-04],
                           [-1.33100e-01,  3.92800e-02,  7.04000e-03,  4.00200e-03,  1.08000e-03, -1.26600e-03, -5.29300e-04,  2.65600e-04],
                           [-5.58700e-02,  1.35700e-02,  2.11700e-03,  7.30000e-04,  1.03300e-03, -4.90300e-05, -4.22500e-04, -4.62500e-05],
                           [-1.92000e-02,  4.21900e-03,  6.53600e-04, -2.76900e-04,  2.41200e-04,  2.67900e-04, -1.07200e-04, -1.14200e-04],
                           [-5.90900e-03,  2.41300e-03,  1.26400e-05, -2.04200e-04, -1.19200e-04,  1.30700e-04,  5.02000e-05, -5.58300e-05],
                           [-2.36400e-03,  1.65400e-03,  2.04600e-05, -4.60800e-05, -1.12000e-04,  7.28200e-07,  5.18500e-05, -3.63400e-06]])

# Reaction 4
chebyshev_reaction('O2 + bR (+ M) <=> bRO2 (+ M)',
                   Tmin=180.0, Tmax=1500.0,
                   Pmin=(0.01, 'atm'), Pmax=(98.692, 'atm'),
                   coeffs=[[ 1.30600e+01,  7.99100e-01, -9.86900e-02,  3.96100e-03, -1.34000e-04, -6.07400e-05, -4.37700e-05,  1.45500e-05],
                           [-1.47700e+00,  8.67000e-01, -5.09400e-05, -1.69900e-02, -5.47500e-04,  2.56300e-04,  3.11100e-05, -2.09000e-05],
                           [-6.33200e-01,  2.49600e-01,  4.95400e-02, -1.32800e-03, -1.76300e-03, -3.97300e-04,  5.80800e-05,  1.56100e-05],
                           [-2.71400e-01,  5.01300e-02,  2.03700e-02,  3.93500e-03,  1.60200e-04, -2.31000e-04, -7.22100e-05, -8.08400e-07],
                           [-1.16100e-01,  1.38300e-02,  4.25700e-03,  1.41700e-03,  3.07200e-04,  9.70200e-05, -1.67800e-05, -1.17400e-05],
                           [-3.91300e-02, -3.35600e-03,  2.01400e-03,  5.14300e-04, -4.96800e-05,  3.20900e-05,  1.66900e-05,  2.76100e-06],
                           [-5.06400e-04, -1.26600e-02,  8.63400e-04,  5.08400e-04,  3.73400e-05, -3.37800e-05, -2.69700e-06,  2.63800e-06],
                           [ 1.07700e-02, -1.04500e-02, -4.65600e-04,  2.87600e-04,  7.52000e-05, -5.07100e-07, -6.10100e-06, -1.36500e-06],
                           [ 8.38000e-03, -4.72500e-03, -7.59700e-04,  4.94600e-05,  2.98600e-05,  9.23700e-06,  7.57700e-07, -3.35600e-07],
                           [ 3.82200e-03, -2.02500e-03, -3.43000e-04,  1.47900e-05,  4.78500e-06,  3.39900e-07,  1.08700e-06,  4.61000e-07]])
#  bRO2(+M) <=> bQOOHg(+M)                             1.000e+00 0.000     0.000
#      TCHEB/ 180.000   1500.000 /
#      PCHEB/ 0.010     98.692   /
#      CHEB/ 10 8/
#      CHEB/ -6.638e+00   8.921e-01    -8.054e-02   -1.137e-02   1.249e-03   /
#      CHEB/ 1.035e-04    5.527e-05    4.637e-05    1.004e+01    1.495e+00   /
#      CHEB/ -1.073e-01   -2.486e-02   1.089e-03    6.320e-04    1.161e-04   /
#      CHEB/ 5.205e-05    -1.320e-01   8.609e-01    -8.120e-03   -2.310e-02  /
#      CHEB/ -2.287e-03   1.158e-03    2.162e-04    -1.583e-05   -4.456e-01  /
#      CHEB/ 3.136e-01    4.087e-02    -1.092e-02   -4.713e-03   6.494e-04   /
#      CHEB/ 4.120e-04    -8.818e-06   -2.669e-01   5.547e-02    2.781e-02   /
#      CHEB/ 2.089e-03    -3.875e-03   -5.713e-04   4.370e-04    8.556e-05   /
#      CHEB/ -8.423e-02   2.660e-03    2.349e-03    6.000e-03    -1.272e-03  /
#      CHEB/ -1.174e-03   1.720e-04    1.502e-04    -6.958e-03   7.036e-03   /
#      CHEB/ -5.529e-03   3.487e-03    2.426e-04    -7.902e-04   -1.152e-04  /
#      CHEB/ 1.011e-04    8.475e-03    4.372e-03    -2.382e-03   1.287e-03   /
#      CHEB/ 2.523e-04    -2.023e-04   -1.810e-04   3.141e-06    7.408e-03   /
#      CHEB/ -3.104e-03   -1.716e-04   9.367e-04    1.103e-05    2.798e-05   /
#      CHEB/ -9.842e-05   -4.336e-05   5.027e-03    -5.623e-03   -3.458e-04  /
#      CHEB/ 8.265e-04    5.507e-05    2.921e-05    -3.146e-05   -3.240e-05  /

# Reaction 5
chebyshev_reaction('bQOOHa (+ M) <=> bQOOHg (+ M)',
                   Tmin=180.0, Tmax=1500.0,
                   Pmin=(0.01, 'atm'), Pmax=(98.692, 'atm'),
                   coeffs=[[-8.69200e+00,  2.71300e-01, -3.02600e-01, -1.17400e-02,  4.83000e-03, -8.81800e-04,  9.59300e-05,  1.35100e-04],
                           [ 8.44900e+00,  2.59600e+00, -3.55600e-02, -8.26000e-02, -7.38800e-03,  4.48500e-03,  3.07900e-04, -2.06900e-04],
                           [-2.41400e-01,  8.64500e-01,  1.11500e-01, -2.30300e-03, -1.74300e-02, -2.87400e-03,  1.47200e-03,  4.55200e-04],
                           [-4.81400e-01,  1.52100e-01,  5.87200e-02,  1.41500e-02, -1.54600e-03, -3.31800e-03, -8.47100e-04,  3.64000e-04],
                           [-1.05000e-01, -7.93200e-03,  1.40400e-02,  7.25300e-03,  9.55700e-04,  2.39900e-05, -5.41000e-04, -3.09100e-04],
                           [ 2.94000e-02, -3.22400e-02,  3.85400e-03,  6.91200e-03, -1.23200e-03, -2.73400e-04,  3.54900e-04, -8.43500e-05],
                           [ 2.19000e-02, -3.01500e-02,  2.16500e-03,  4.90200e-03,  1.82800e-04, -7.50400e-04, -3.98600e-05,  1.75400e-04],
                           [ 1.60400e-02, -2.94500e-02,  3.72900e-03,  1.12300e-03,  7.80900e-04,  1.03900e-05, -2.95200e-04,  2.03300e-05],
                           [ 1.55900e-02, -1.50700e-02,  7.49700e-04, -3.34400e-04,  6.64100e-04,  1.87500e-04, -1.29700e-04, -5.66300e-05],
                           [ 1.20700e-02, -1.12900e-02,  1.90600e-03, -4.20500e-04,  1.04000e-04,  1.13600e-04,  1.16900e-05, -3.85100e-05]])

# Reaction 6
chebyshev_reaction('bQOOH[O] (+ M) <=> bQOOHg (+ M)',
                   Tmin=180.0, Tmax=1500.0,
                   Pmin=(0.01, 'atm'), Pmax=(98.692, 'atm'),
                   coeffs=[[-7.79300e-01,  1.24900e-01, -3.57000e-01,  3.25100e-03,  1.15700e-02, -3.06900e-03, -7.50600e-04,  5.67100e-04],
                           [ 3.32200e+00,  2.39300e+00, -7.29800e-02, -8.62900e-02, -2.85500e-03,  7.32000e-03, -4.88900e-04, -7.86700e-04],
                           [-5.35200e-01,  9.12300e-01,  1.16500e-01, -2.83500e-02, -2.07000e-02,  7.99600e-04,  2.93800e-03, -8.06300e-05],
                           [-5.13800e-01,  2.32000e-01,  7.86600e-02,  5.41400e-03, -9.32400e-03, -3.74100e-03,  7.71200e-04,  8.28400e-04],
                           [-1.49000e-01,  2.73100e-02,  2.47600e-02,  1.15300e-02, -2.18200e-03, -2.36600e-03, -5.25800e-04,  2.82600e-04],
                           [-2.01200e-02, -4.73900e-03,  4.54300e-03,  8.23100e-03, -1.28900e-04, -1.07900e-03, -3.89400e-04, -6.77800e-05],
                           [-1.53700e-03, -1.07600e-02,  2.73700e-03,  3.84500e-03,  7.67800e-04, -3.52800e-04, -3.09000e-04, -6.65100e-05],
                           [ 3.16000e-03, -1.52100e-02,  1.82800e-03,  1.50000e-03,  8.80700e-04,  1.22300e-04, -2.13900e-04, -7.39900e-05],
                           [ 1.22100e-02, -1.22400e-02, -2.87200e-05,  4.17900e-04,  6.20400e-04,  2.11900e-04, -6.01500e-05, -5.68600e-05],
                           [ 8.33100e-03, -8.49500e-03,  1.95500e-04, -1.78300e-05,  2.32000e-04,  1.30400e-04,  2.23600e-05, -1.68000e-05]])

# Reaction 7
chebyshev_reaction('O2 + bR (+ M) <=> bQOOHg (+ M)',
                   Tmin=180.0, Tmax=1500.0,
                   Pmin=(0.01, 'atm'), Pmax=(98.692, 'atm'),
                   coeffs=[[ 6.50400e+00,  1.85200e-02, -3.20100e-01,  1.58600e-02,  4.34800e-03, -3.26700e-03,  6.22800e-04,  3.70700e-04],
                           [ 3.34700e-01,  1.61000e+00,  7.89600e-02, -7.42200e-02, -3.71500e-03,  5.57100e-03, -8.17500e-04, -2.72800e-04],
                           [-1.32300e-01,  3.33500e-01,  9.97600e-02, -1.05000e-02, -1.01000e-02,  3.89700e-04,  1.11400e-03, -5.23000e-05],
                           [ 2.62700e-02, -4.06500e-02,  5.00400e-02,  1.00100e-02, -8.22800e-03, -1.91400e-03,  1.06500e-03,  2.39400e-04],
                           [ 5.56000e-02, -2.25200e-02,  1.03700e-02,  9.96500e-03, -7.58500e-04, -2.94700e-03, -3.09400e-04,  5.16400e-04],
                           [ 2.90900e-02, -2.49300e-02,  3.79700e-03,  7.06400e-03,  1.27100e-03, -1.27700e-03, -7.39100e-04,  6.78500e-05],
                           [ 6.15200e-03, -1.03500e-02, -3.96000e-03,  2.50900e-03,  2.33100e-03, -7.91800e-05, -6.22300e-04, -1.42200e-04],
                           [ 2.98700e-03, -4.61500e-03, -3.37500e-03,  2.39900e-04,  1.13600e-03,  4.57800e-04, -1.82400e-04, -2.01000e-04],
                           [ 2.33800e-03,  4.05200e-03, -2.53800e-03, -7.64000e-04,  6.20400e-04,  3.88900e-04, -5.39100e-06, -9.75700e-05],
                           [ 7.45100e-04, -7.66300e-04,  1.96500e-04, -4.05400e-04, -1.29700e-04,  2.66100e-04,  1.24400e-04, -4.72900e-05]])
#  bRO2(+M) <=> bQOOHa(+M)                             1.000e+00 0.000     0.000
#      TCHEB/ 180.000   1500.000 /
#      PCHEB/ 0.010     98.692   /
#      CHEB/ 10 8/
#      CHEB/ -6.377e-01   8.891e-01    -7.952e-02   -1.639e-02   5.459e-04   /
#      CHEB/ 7.175e-04    7.567e-05    -3.294e-05   5.315e+00    1.431e+00   /
#      CHEB/ -8.618e-02   -3.007e-02   -1.669e-03   1.138e-03    2.511e-04   /
#      CHEB/ -1.479e-05   1.001e-01    7.172e-01    3.632e-02    -1.678e-02  /
#      CHEB/ -6.393e-03   2.537e-05    3.841e-04    1.072e-04    -3.609e-01  /
#      CHEB/ 1.861e-01    7.583e-02    2.744e-03    -6.200e-03   -1.553e-03  /
#      CHEB/ 2.017e-04    2.067e-04    -2.948e-01   1.131e-02    3.680e-02   /
#      CHEB/ 1.118e-02    -7.398e-04   -1.974e-03   -3.042e-04   1.572e-04   /
#      CHEB/ -1.550e-01   1.978e-02    -3.451e-03   5.688e-03    3.288e-03   /
#      CHEB/ -7.074e-04   -5.725e-04   -3.730e-05   -6.133e-02   3.574e-02   /
#      CHEB/ -1.217e-02   -1.071e-03   2.530e-03    5.984e-04    -2.898e-04  /
#      CHEB/ -1.702e-04   -1.535e-02   2.071e-02    -4.943e-03   -2.072e-03  /
#      CHEB/ 1.255e-04    6.797e-04    1.117e-04    -1.084e-04   6.941e-04   /
#      CHEB/ 1.743e-03    7.112e-04    -4.074e-04   -7.357e-04   1.152e-04   /
#      CHEB/ 1.847e-04    2.085e-05    2.255e-03    -4.605e-03   1.535e-03   /
#      CHEB/ 3.156e-04    -2.722e-04   -1.638e-04   3.774e-05    5.636e-05   /
#  bQOOHg(+M) <=> bQOOHa(+M)                           1.000e+00 0.000     0.000
#      TCHEB/ 180.000   1500.000 /
#      PCHEB/ 0.010     98.692   /
#      CHEB/ 10 8/
#      CHEB/ -2.237e+00   2.713e-01    -3.026e-01   -1.174e-02   4.830e-03   /
#      CHEB/ -8.818e-04   9.593e-05    1.351e-04    3.147e+00    2.596e+00   /
#      CHEB/ -3.556e-02   -8.260e-02   -7.388e-03   4.485e-03    3.079e-04   /
#      CHEB/ -2.069e-04   -3.322e-01   8.645e-01    1.115e-01    -2.303e-03  /
#      CHEB/ -1.743e-02   -2.874e-03   1.472e-03    4.552e-04    -5.173e-01  /
#      CHEB/ 1.521e-01    5.872e-02    1.415e-02    -1.546e-03   -3.318e-03  /
#      CHEB/ -8.471e-04   3.640e-04    -1.156e-01   -7.932e-03   1.404e-02   /
#      CHEB/ 7.253e-03    9.557e-04    2.399e-05    -5.410e-04   -3.091e-04  /
#      CHEB/ 2.677e-02    -3.224e-02   3.854e-03    6.912e-03    -1.232e-03  /
#      CHEB/ -2.734e-04   3.549e-04    -8.435e-05   2.113e-02    -3.015e-02  /
#      CHEB/ 2.165e-03    4.902e-03    1.828e-04    -7.504e-04   -3.986e-05  /
#      CHEB/ 1.754e-04    1.576e-02    -2.945e-02   3.729e-03    1.123e-03   /
#      CHEB/ 7.809e-04    1.039e-05    -2.952e-04   2.033e-05    1.556e-02   /
#      CHEB/ -1.507e-02   7.497e-04    -3.344e-04   6.641e-04    1.875e-04   /
#      CHEB/ -1.297e-04   -5.663e-05   1.213e-02    -1.129e-02   1.906e-03   /
#      CHEB/ -4.205e-04   1.040e-04    1.136e-04    1.169e-05    -3.851e-05  /

# Reaction 8
chebyshev_reaction('bQOOH[O] (+ M) <=> bQOOHa (+ M)',
                   Tmin=180.0, Tmax=1500.0,
                   Pmin=(0.01, 'atm'), Pmax=(98.692, 'atm'),
                   coeffs=[[ 2.83000e+00,  3.21800e-01, -4.44500e-01,  1.10900e-02,  1.47800e-02, -3.25500e-03, -8.53500e-04,  4.38600e-04],
                           [ 1.32300e+00,  2.14300e+00,  3.19900e-02, -1.14900e-01, -3.41700e-03,  1.03900e-02, -9.17700e-04, -1.11400e-03],
                           [-7.86400e-01,  6.81500e-01,  1.76500e-01, -1.06000e-02, -2.69500e-02, -1.10000e-03,  3.48500e-03,  6.31400e-05],
                           [-5.75300e-01,  2.10700e-01,  6.82100e-02,  2.74300e-02, -7.50900e-03, -6.63900e-03,  5.58000e-04,  1.01200e-03],
                           [-2.53800e-01,  8.46200e-02,  6.45400e-03,  1.28000e-02,  4.18600e-03, -2.51900e-03, -1.31600e-03,  2.75500e-04],
                           [-9.22400e-02,  2.72200e-02, -9.49100e-04,  1.37400e-03,  2.63800e-03,  4.78500e-04, -6.47300e-04, -2.25000e-04],
                           [-3.68000e-02,  9.19900e-03, -7.72600e-04, -2.38900e-04,  3.59900e-04,  5.38200e-04, -2.61400e-05, -1.37900e-04],
                           [-1.08200e-02, -9.65300e-04,  5.16800e-04,  6.66900e-04, -4.32900e-04,  1.43600e-04,  1.27900e-04, -4.70800e-05],
                           [-2.52800e-03,  2.87600e-03, -1.90400e-03,  4.45300e-04,  2.30100e-04, -6.37400e-05,  1.54500e-05,  1.19300e-05],
                           [ 4.21600e-03, -3.85800e-03,  1.33000e-04,  2.47400e-04, -7.80900e-05,  5.44800e-05,  3.69200e-05, -1.07500e-05]])

# Reaction 9
chebyshev_reaction('O2 + bR (+ M) <=> bQOOHa (+ M)',
                   Tmin=180.0, Tmax=1500.0,
                   Pmin=(0.01, 'atm'), Pmax=(98.692, 'atm'),
                   coeffs=[[ 8.93300e+00,  3.80500e-01, -3.37000e-01, -3.68400e-02,  1.22000e-02,  5.16300e-03, -1.49200e-03, -9.55300e-04],
                           [-8.00100e-01,  1.34300e+00,  1.63200e-01, -2.43100e-02, -2.48700e-02, -3.54400e-03,  3.37200e-03,  1.07400e-03],
                           [-5.64100e-01,  2.78500e-01,  1.07300e-01,  1.86600e-02, -3.65200e-03, -4.85000e-03, -1.14800e-03,  5.62800e-04],
                           [-1.70400e-01, -6.43000e-03,  2.73200e-02,  1.46400e-02,  3.63500e-03, -9.46800e-04, -1.22500e-03, -2.90800e-04],
                           [-9.16300e-03, -2.01000e-02,  2.26600e-03,  3.97800e-03,  2.25100e-03,  7.56600e-04, -2.33400e-04, -3.32400e-04],
                           [ 1.25800e-02, -2.35800e-02, -1.42600e-03,  1.92100e-03,  1.07500e-03,  3.91800e-04,  3.80400e-05, -7.30700e-05],
                           [ 2.84700e-03, -1.46600e-02, -2.10300e-03, -8.27400e-05,  3.65300e-04,  3.72600e-04,  1.51100e-04, -2.36000e-05],
                           [ 8.03800e-03, -1.07800e-02, -2.73600e-03,  2.94700e-04,  2.26800e-04, -7.49000e-06,  4.15000e-05,  5.86300e-05],
                           [ 2.42400e-03,  2.52500e-03, -1.43200e-03, -8.96900e-04, -1.07000e-04,  1.61800e-04,  6.83100e-05, -1.17200e-05],
                           [ 5.61500e-03, -2.64200e-03, -1.00800e-03,  4.37200e-04,  1.28700e-04, -1.54400e-04, -4.67700e-05,  4.39100e-05]])
#  bRO2(+M) <=> bQOOH[O](+M)                           1.000e+00 0.000     0.000
#      TCHEB/ 180.000   1500.000 /
#      PCHEB/ 0.010     98.692   /
#      CHEB/ 10 8/
#      CHEB/ -2.370e+00   9.682e-01    -2.080e-01   1.189e-02    6.436e-03   /
#      CHEB/ -1.178e-03   -3.636e-04   6.091e-05    8.782e+00    1.121e+00   /
#      CHEB/ -7.266e-02   -5.040e-02   9.155e-03    4.169e-03    -1.537e-03  /
#      CHEB/ -3.747e-04   -8.344e-01   4.611e-01    7.522e-02    -2.855e-02  /
#      CHEB/ -1.037e-02   3.961e-03    1.233e-03    -6.637e-04   -5.185e-01  /
#      CHEB/ 2.026e-01    5.309e-02    3.278e-03    -9.805e-03   -1.512e-03  /
#      CHEB/ 1.763e-03    2.447e-04    -2.802e-01   9.501e-02    2.099e-02   /
#      CHEB/ 8.439e-03    -2.281e-03   -2.771e-03   2.807e-04    5.998e-04   /
#      CHEB/ -1.370e-01   3.928e-02    7.040e-03    4.002e-03    1.080e-03   /
#      CHEB/ -1.266e-03   -5.293e-04   2.656e-04    -5.738e-02   1.357e-02   /
#      CHEB/ 2.117e-03    7.300e-04    1.033e-03    -4.903e-05   -4.225e-04  /
#      CHEB/ -4.625e-05   -1.983e-02   4.219e-03    6.536e-04    -2.769e-04  /
#      CHEB/ 2.412e-04    2.679e-04    -1.072e-04   -1.142e-04   -6.087e-03  /
#      CHEB/ 2.413e-03    1.264e-05    -2.042e-04   -1.192e-04   1.307e-04   /
#      CHEB/ 5.020e-05    -5.583e-05   -2.358e-03   1.654e-03    2.046e-05   /
#      CHEB/ -4.608e-05   -1.120e-04   7.282e-07    5.185e-05    -3.634e-06  /
#  bQOOHg(+M) <=> bQOOH[O](+M)                         1.000e+00 0.000     0.000
#      TCHEB/ 180.000   1500.000 /
#      PCHEB/ 0.010     98.692   /
#      CHEB/ 10 8/
#      CHEB/ -1.801e+00   1.249e-01    -3.570e-01   3.251e-03    1.157e-02   /
#      CHEB/ -3.069e-03   -7.506e-04   5.671e-04    3.450e+00    2.393e+00   /
#      CHEB/ -7.298e-02   -8.629e-02   -2.855e-03   7.320e-03    -4.889e-04  /
#      CHEB/ -7.867e-04   -6.869e-01   9.123e-01    1.165e-01    -2.835e-02  /
#      CHEB/ -2.070e-02   7.996e-04    2.938e-03    -8.063e-05   -5.720e-01  /