units(length='cm', time='s', quantity='mol', act_energy='kcal/mol')

ideal_gas(name='gas',
          elements="H D T C Ci O Oi N Ne Ar He Si S F Cl Br I X",
          species="""aOOHbalkene      OH               ibutanal
                     aR               performic_acid   disub_c4ether
                     aQOOHb           H                aadduct
                     trisub_epoxy     ibutenol         aQOOH[O]
                     ipropyl          aRO2             O2
                     formic_acid      propene          aQOOHg
                     ibut_peroxyacid  HO2              CH3""",
          reactions='all',
          initial_state=state(temperature=300.0, pressure=OneAtm))

#-------------------------------------------------------------------------------
# Element data
#-------------------------------------------------------------------------------

element(symbol='Ci', atomic_mass=13.003)
element(symbol='D', atomic_mass=2.014)
element(symbol='Oi', atomic_mass=18.0)
element(symbol='T', atomic_mass=3.016)
element(symbol='X', atomic_mass=195.083)
#-------------------------------------------------------------------------------
# Species data
#-------------------------------------------------------------------------------

species(name='aOOHbalkene',
        atoms='C:3 H:6 O:3',
        thermo=(NASA([10.00, 497.41],
                     [ 3.76691735E+00,  1.51417956E-02,  1.85499431E-04,
                      -4.61303214E-07,  3.27678941E-10, -3.16387037E+04,
                       1.09903968E+01]),
                NASA([497.41, 3000.00],
                     [ 6.20882781E+00,  4.08866173E-02, -2.89934946E-05,
                       9.60428979E-09, -1.19355432E-12, -3.24430330E+04,
                      -4.72842811E+00])))

species(name='OH',
        atoms='H:1 O:1',
        thermo=(NASA([10.00, 984.14],
                     [ 3.49686242E+00,  1.83973160E-04, -9.97634499E-07,
                       1.56942783E-09, -6.10128175E-13,  3.41673934E+03,
                       1.48093120E+00]),
                NASA([984.14, 3000.00],
                     [ 3.45221464E+00, -2.95124034E-04,  7.39418622E-07,
                      -2.89309866E-10,  3.53041498E-14,  3.45751599E+03,
                       1.85813897E+00])))

species(name='ibutanal',
        atoms='C:4 H:8 O:1',
        thermo=(NASA([10.00, 683.88],
                     [ 3.57157346E+00,  3.36936906E-02, -1.78475021E-05,
                       1.31946716E-08, -7.58008388E-12, -2.69605584E+04,
                       1.05595084E+01]),
                NASA([683.88, 3000.00],
                     [ 1.29043622E+00,  4.14804229E-02, -2.27411206E-05,
                       6.08619500E-09, -6.38995128E-13, -2.65186393E+04,
                       2.16477430E+01])))

species(name='aR',
        atoms='C:4 H:9 O:1',
        thermo=(NASA([10.00, 455.22],
                     [ 3.59625500E+00,  3.38947981E-02,  7.37257079E-06,
                      -3.99275335E-08,  2.49019944E-11, -1.43053652E+04,
                       1.18269265E+01]),
                NASA([455.22, 3000.00],
                     [ 2.49586309E+00,  4.35639890E-02, -2.44887770E-05,
                       6.73363769E-09, -7.23862433E-13, -1.42051820E+04,
                       1.62696907E+01])))

species(name='performic_acid',
        atoms='C:1 H:2 O:3',
        thermo=(NASA([10.00, 590.95],
                     [ 3.92633851E+00,  4.24517168E-03,  6.71106764E-05,
                      -1.36545385E-07,  8.03337864E-11, -3.63028176E+04,
                       8.06485813E+00]),
                NASA([590.95, 3000.00],
                     [ 4.39992934E+00,  1.85411415E-02, -1.36005501E-05,
                       4.62292431E-09, -5.88463603E-13, -3.66643888E+04,
                       3.44353230E+00])))

species(name='disub_c4ether',
        atoms='C:4 H:8 O:2',
        thermo=(NASA([10.00, 413.50],
                     [ 3.78241323E+00,  1.89501763E-02,  8.65302396E-05,
                      -1.80580575E-07,  1.13656264E-10, -3.97563891E+04,
                       1.09982450E+01]),
                NASA([413.50, 3000.00],
                     [ 4.29420885E-01,  5.13851903E-02, -3.11292293E-05,
                       9.11498284E-09, -1.03192718E-12, -3.94790948E+04,
                       2.42134976E+01])))

species(name='aQOOHb',
        atoms='C:4 H:9 O:3',
        thermo=(NASA([10.00, 412.78],
                     [ 3.15498836E+00,  8.55068303E-02, -2.35307993E-04,
                       4.71983261E-07, -3.62709267E-10, -2.93819176E+04,
                       1.52522123E+01]),
                NASA([412.78, 3000.00],
                     [ 4.18099845E+00,  5.26168288E-02, -3.23998410E-05,
                       9.59389339E-09, -1.09464519E-12, -2.92711227E+04,
                       1.35782328E+01])))

species(name='H',
        atoms='H:1',
        thermo=(NASA([10.00, 794.01],
                     [ 2.50000000E+00,  1.99051163E-15, -1.19089508E-17,
                       2.10805655E-20, -1.11017699E-23,  2.54725594E+04,
                      -4.61279342E-01]),
                NASA([794.01, 3000.00],
                     [ 2.50000000E+00,  1.52667235E-14, -1.58445285E-17,
                       6.63088600E-21, -9.62111674E-25,  2.54725594E+04,
                      -4.61279342E-01])))

species(name='aadduct',
        atoms='C:4 H:9 O:3',
        thermo=(NASA([10.00, 449.84],
                     [ 3.06901904E+00,  9.20724491E-02, -2.68085092E-04,
                       5.15249897E-07, -3.68046586E-10, -3.12598201E+04,
                       1.46591735E+01]),
                NASA([449.84, 3000.00],
                     [ 4.11210745E+00,  5.16955724E-02, -2.97401041E-05,
                       8.32758939E-09, -9.08861448E-13, -3.10389791E+04,
                       1.39578825E+01])))

species(name='trisub_epoxy',
        atoms='C:4 H:8 O:2',
        thermo=(NASA([10.00, 209.19],
                     [ 3.75295042E+00,  2.37546930E-02,  1.26610110E-04,
                      -4.78364365E-07,  5.79468168E-10, -3.89161467E+04,
                       1.12739684E+01]),
                NASA([209.19, 3000.00],
                     [ 2.64185254E+00,  4.50006531E-02, -2.57361066E-05,
                       7.15266054E-09, -7.72980731E-13, -3.88696611E+04,
                       1.48960343E+01])))

species(name='ibutenol',
        atoms='C:4 H:8 O:1',
        thermo=(NASA([10.00, 135.97],
                     [ 3.95714996E+00,  5.72646980E-03,  4.63611760E-04,
                      -3.04137514E-06,  6.85019471E-09, -2.32049595E+04,
                       8.21931848E+00]),
                NASA([135.97, 3000.00],
                     [ 3.32467612E+00,  3.69033556E-02, -1.89960416E-05,
                       4.73417677E-09, -4.59705291E-13, -2.31993809E+04,
                       9.58133237E+00])))

species(name='aQOOH[O]',
        atoms='C:4 H:9 O:3',
        thermo=(NASA([10.00, 488.36],
                     [ 3.54559533E+00,  3.89536133E-02,  8.47689703E-05,
                      -2.45147486E-07,  1.76157259E-10, -2.33040619E+04,
                       1.34685910E+01]),
                NASA([488.36, 3000.00],
                     [ 3.94214913E+00,  5.71928314E-02, -3.72516212E-05,
                       1.15209013E-08, -1.35808341E-12, -2.35990229E+04,
                       9.21628964E+00])))

species(name='ipropyl',
        atoms='C:3 H:7',
        thermo=(NASA([10.00, 421.76],
                     [ 3.73943775E+00,  3.10070157E-02, -1.51196908E-04,
                       4.35367329E-07, -3.85565052E-10,  9.49213457E+03,
                       7.79448918E+00]),
                NASA([421.76, 3000.00],
                     [-4.74526725E-01,  3.20862468E-02, -1.67340747E-05,
                       4.21365136E-09, -4.13155573E-13,  1.01934458E+04,
                       2.85865912E+01])))

species(name='aRO2',
        atoms='C:4 H:9 O:3',
        thermo=(NASA([10.00, 670.36],
                     [ 3.45405325E+00,  4.74751311E-02,  9.77507759E-06,
                      -6.31019603E-08,  3.75500067E-11, -3.45157363E+04,
                       1.39284976E+01]),
                NASA([670.36, 3000.00],
                     [ 5.04137652E+00,  5.19952978E-02, -3.16472789E-05,
                       9.22798587E-09, -1.03598915E-12, -3.50429289E+04,
                       4.56056770E+00])))

species(name='O2',
        atoms='O:2',
        thermo=(NASA([10.00, 605.96],
                     [ 3.50743498E+00, -4.43860349E-04,  1.45938058E-06,
                       1.61509333E-09, -2.32050052E-12, -9.24756224E+02,
                       4.72183634E+00]),
                NASA([605.96, 3000.00],
                     [ 2.87462882E+00,  2.17840991E-03, -1.18262921E-06,
                       2.86910493E-10, -2.53297146E-14, -8.19517838E+02,
                       7.69331810E+00])))

species(name='formic_acid',
        atoms='C:1 H:2 O:2',
        thermo=(NASA([10.00, 741.38],
                     [ 4.06855785E+00, -4.74562133E-03,  4.71797900E-05,
                      -6.07490052E-08,  2.51286794E-11, -4.66880837E+04,
                       6.53681035E+00]),
                NASA([741.38, 3000.00],
                     [ 1.13645847E+00,  1.74953124E-02, -1.08112403E-05,
                       3.08075326E-09, -3.34892658E-13, -4.64297918E+04,
                       1.86149484E+01])))

species(name='propene',
        atoms='C:3 H:6',
        thermo=(NASA([10.00, 519.53],
                     [ 3.98723879E+00,  4.72040503E-04,  6.51776229E-05,
                      -9.89891002E-08,  4.91141123E-11,  5.37093592E+02,
                       6.98071210E+00]),
                NASA([519.53, 3000.00],
                     [ 3.79893331E-01,  2.82457690E-02, -1.50108430E-05,
                       3.90894069E-09, -4.00521928E-13,  9.11920940E+02,
                       2.20218922E+01])))

species(name='aQOOHg',
        atoms='C:4 H:9 O:3',
        thermo=(NASA([10.00, 455.48],
                     [ 3.62522127E+00,  2.83222320E-02,  2.08527447E-04,
                      -5.67427418E-07,  4.35169138E-10, -2.46603272E+04,
                       1.26617758E+01]),
                NASA([455.48, 3000.00],
                     [ 5.13914202E+00,  5.96270859E-02, -4.14435328E-05,
                       1.34202375E-08, -1.63474553E-12, -2.52608836E+04,
                       1.46991116E+00])))

species(name='ibut_peroxyacid',
        atoms='C:4 H:8 O:3',
        thermo=(NASA([10.00, 1386.21],
                     [ 3.50995385E+00,  4.78670384E-02, -2.40781384E-05,
                       3.71046938E-09,  3.85442115E-13, -4.65322249E+04,
                       1.22017268E+01]),
                NASA([1386.21, 3000.00],
                     [ 1.24543146E+01,  3.02396862E-02, -1.38577031E-05,
                       3.05328904E-09, -2.63982457E-13, -4.97981082E+04,
                      -3.67061828E+01])))

species(name='HO2',
        atoms='H:1 O:2',
        thermo=(NASA([10.00, 891.11],
                     [ 4.02887004E+00, -1.75769289E-03,  1.08726004E-05,
                      -1.13812972E-08,  3.90113097E-12,  4.95165001E+02,
                       4.69302008E+00]),
                NASA([891.11, 3000.00],
                     [ 3.06571044E+00,  4.28505005E-03, -2.19325920E-06,
                       5.58882699E-10, -5.61246669E-14,  5.98557610E+02,
                       8.84564156E+00])))

species(name='CH3',
        atoms='C:1 H:3',
        thermo=(NASA([10.00, 616.77],
                     [ 3.98929952E+00,  5.45150461E-04,  9.01320092E-06,
                      -1.08320497E-08,  4.38985879E-12,  1.65859883E+04,
                       2.22446886E-01]),
                NASA([616.77, 3000.00],
                     [ 3.35928237E+00,  4.63117126E-03, -9.24365433E-07,
                      -9.02514624E-11,  3.56905106E-14,  1.66637014E+04,
                       2.95743732E+00])))

#-------------------------------------------------------------------------------
# Reaction data
#-------------------------------------------------------------------------------

# Reaction 1
chebyshev_reaction('aQOOH[O] (+ M) <=> aQOOHb (+ M)',
                   Tmin=180.0, Tmax=1500.0,
                   Pmin=(0.01, 'atm'), Pmax=(98.692, 'atm'),
                   coeffs=[[-3.08800e+00,  2.52200e+00, -2.72600e-01, -7.26600e-03,  1.11700e-02,  2.04400e-03, -2.28500e-03, -1.36500e-04],
                           [-3.54700e+00,  1.49900e+00,  9.35800e-02,  1.51700e-02, -4.88600e-03, -5.86300e-04,  3.96100e-03, -4.51600e-04],
                           [-3.30900e+00,  1.34900e-01,  7.71000e-02, -1.35100e-02,  1.14000e-02, -1.44000e-03, -3.08100e-03,  1.07400e-03],
                           [-1.88900e+00, -1.08400e-01,  5.36700e-02, -5.88000e-03,  5.63700e-03,  4.91400e-03, -1.33900e-03, -1.10400e-03],
                           [-9.36800e-01, -1.77400e-01, -1.61100e-03,  8.09200e-04, -4.28800e-03,  5.32600e-03,  2.11600e-03, -7.41300e-04],
                           [-4.18700e-01, -1.45800e-01, -3.95700e-02, -3.56400e-03, -4.98400e-03, -3.34400e-04,  2.05900e-03,  7.14300e-04],
                           [-1.29700e-01, -5.46800e-02, -4.56700e-02, -5.93300e-03, -3.10800e-03, -2.26600e-03,  2.23100e-04,  7.03300e-04],
                           [ 3.24900e-03,  1.21500e-02, -1.95600e-02, -8.42900e-03, -1.07300e-03, -1.38700e-03, -7.80700e-04,  9.60800e-05],
                           [ 1.52300e-02,  6.16200e-02,  4.14700e-03, -4.88400e-03, -1.48000e-03,  1.39400e-04, -5.97300e-04, -4.34700e-04],
                           [-2.46300e-03,  4.56200e-02,  2.08700e-02,  1.32900e-03, -9.99900e-04, -5.15400e-04,  3.29300e-05, -2.85700e-04]])

# Reaction 2
chebyshev_reaction('aQOOHg (+ M) <=> aQOOHb (+ M)',
                   Tmin=180.0, Tmax=1500.0,
                   Pmin=(0.01, 'atm'), Pmax=(98.692, 'atm'),
                   coeffs=[[-4.79600e+00,  2.82400e+00, -4.62400e-01, -1.13800e-01,  2.66600e-02,  8.81700e-03, -2.79200e-03, -8.22500e-04],
                           [-3.04800e+00,  2.07700e+00,  4.47600e-01,  3.25500e-02, -4.57300e-02, -1.04600e-02,  4.16300e-03,  1.86500e-03],
                           [-3.71200e+00, -6.03300e-01,  1.58100e-01,  1.20000e-01,  1.36700e-03, -7.30100e-03, -6.73000e-04, -3.84600e-04],
                           [-1.99000e+00, -5.06400e-01, -6.96900e-02,  6.95900e-03,  1.26400e-02,  6.88200e-03,  4.03200e-04, -1.07400e-03],
                           [-8.78100e-01, -1.86000e-01, -7.09900e-02, -1.25600e-02,  6.76300e-04, -5.95000e-06,  1.32400e-03,  9.97200e-04],
                           [-3.27600e-01, -1.12900e-01, -4.60700e-02,  3.48200e-03,  4.62800e-03, -2.85800e-03, -7.94700e-04,  5.93100e-04],
                           [-1.10600e-01, -5.16300e-02, -5.04300e-02, -3.62800e-03,  7.32000e-03,  1.50900e-03, -6.68100e-04, -4.13300e-04],
                           [-4.13100e-02,  3.26600e-02, -3.55100e-02, -1.67200e-02,  5.83100e-05,  2.74900e-03,  7.42300e-04, -1.10000e-04],
                           [ 1.61100e-02,  5.13900e-02,  5.72800e-04, -1.28600e-02, -5.09900e-03,  9.70400e-05,  5.60800e-04,  2.99700e-04],
                           [ 2.76600e-02,  3.36300e-02,  2.18300e-02, -2.05300e-04, -3.27600e-03, -1.35100e-03, -3.14600e-04,  6.29800e-05]])

# Reaction 3
chebyshev_reaction('aRO2 (+ M) <=> aQOOHb (+ M)',
                   Tmin=180.0, Tmax=1500.0,
                   Pmin=(0.01, 'atm'), Pmax=(98.692, 'atm'),
                   coeffs=[[-1.02200e+01,  2.89600e+00, -4.01500e-01, -2.49400e-02,  2.01200e-02,  6.45800e-03, -4.56700e-03, -1.42400e-04],
                           [ 6.85200e+00,  2.77100e+00,  3.55500e-02, -1.18800e-01,  3.71900e-02, -2.00700e-03, -2.79900e-03,  1.03500e-03],
                           [-2.87600e+00,  2.29500e-01,  1.78700e-01,  8.03200e-02, -1.43600e-02, -1.13900e-02,  3.31900e-03,  1.46000e-03],
                           [-1.95000e+00, -4.92100e-01,  6.23500e-02,  7.80200e-02, -6.23800e-03, -2.87300e-03,  2.17300e-03, -7.06200e-04],
                           [-9.43300e-01, -3.87200e-01, -4.26600e-02,  1.17500e-02,  5.62600e-03,  5.09100e-03,  3.47000e-04, -1.42400e-03],
                           [-3.77200e-01, -2.05600e-01, -8.31200e-02, -1.21500e-02,  4.82400e-03,  3.79100e-03, -2.64200e-04, -1.80700e-04],
                           [-9.74000e-02, -6.76300e-02, -6.11200e-02, -1.88400e-02,  1.14800e-04,  1.48600e-03,  3.15500e-05,  3.83300e-04],
                           [ 1.33900e-02,  3.09600e-02, -1.98800e-02, -1.87100e-02, -3.50500e-03,  6.76800e-04,  3.45500e-04,  1.87000e-04],
                           [ 3.28500e-02,  6.92700e-02,  1.08900e-02, -9.91900e-03, -4.53400e-03, -2.75700e-04,  2.54800e-04,  6.41800e-05],
                           [ 1.13200e-02,  5.51800e-02,  2.53500e-02,  6.65000e-04, -3.07300e-03, -1.34900e-03,  2.07600e-05,  6.38800e-05]])

# Reaction 4
chebyshev_reaction('aadduct (+ M) <=> aQOOHb (+ M)',
                   Tmin=180.0, Tmax=1500.0,
                   Pmin=(0.01, 'atm'), Pmax=(98.692, 'atm'),
                   coeffs=[[-1.03300e+01,  1.22200e+00, -4.15500e-01,  7.41600e-03,  1.14200e-02,  8.64500e-03, -5.54600e-03,  4.83900e-04],
                           [ 1.90400e+00,  2.84200e+00,  3.48200e-02, -1.12900e-01,  4.27100e-02, -6.84600e-03, -3.27600e-03,  2.40200e-03],
                           [-3.56900e+00,  2.26400e-01,  1.88900e-01,  8.14700e-02, -1.49200e-02, -1.31600e-02,  4.55500e-03,  1.99300e-03],
                           [-2.28400e+00, -4.87600e-01,  6.59300e-02,  8.11600e-02, -9.32700e-03, -3.41600e-03,  4.01600e-03, -6.19200e-04],
                           [-1.08400e+00, -3.74000e-01, -4.00700e-02,  1.06900e-02,  4.59200e-03,  7.88800e-03,  3.35200e-04, -2.56800e-03],
                           [-4.35000e-01, -1.93500e-01, -8.50600e-02, -1.01900e-02,  5.67500e-03,  3.11000e-03, -7.95500e-04,  8.16600e-05],
                           [-1.24500e-01, -6.32300e-02, -6.13900e-02, -1.74400e-02,  9.72100e-06,  6.64900e-04,  2.60600e-04,  7.62600e-04],
                           [-4.97000e-03,  3.38600e-02, -2.08200e-02, -1.83400e-02, -2.64900e-03,  4.10400e-04, -1.21100e-04,  2.02800e-04],
                           [ 2.21900e-02,  7.09800e-02,  1.23300e-02, -1.16300e-02, -5.02900e-03,  1.01800e-03,  5.25100e-04, -4.58900e-04],
                           [ 1.39400e-02,  4.52100e-02,  2.86700e-02,  2.46700e-03, -5.52400e-03, -1.40600e-03,  7.46400e-04,  2.88800e-04]])

# Reaction 5
chebyshev_reaction('O2 + aR (+ M) <=> aQOOHb (+ M)',
                   Tmin=180.0, Tmax=1500.0,
                   Pmin=(0.01, 'atm'), Pmax=(98.692, 'atm'),
                   coeffs=[[ 6.48300e+00,  2.76800e+00, -8.48300e-01, -6.69300e-03,  4.52900e-02, -2.04400e-02,  5.93600e-04,  4.98000e-03],
                           [-2.05100e+00,  5.88100e-01,  8.38800e-01, -1.83900e-01, -4.36100e-02,  3.80300e-02, -4.82000e-03, -6.61600e-03],
                           [-1.50000e+00,  1.82200e-02,  2.93100e-01,  6.45000e-02, -5.25400e-02, -3.24900e-03,  1.07500e-02, -5.79500e-04],
                           [-1.04200e+00, -2.65500e-01,  7.80600e-02,  7.31000e-02, -9.62000e-03, -1.41600e-02,  2.30900e-03,  2.88700e-03],
                           [-5.76000e-01, -2.62900e-01, -2.50400e-02,  4.37800e-02,  1.02100e-02, -7.95200e-03, -2.66900e-03,  1.30200e-03],
                           [-2.43300e-01, -1.68700e-01, -6.06600e-02,  1.36100e-02,  1.26900e-02, -8.28900e-04, -2.38200e-03, -2.00000e-04],
                           [-5.75300e-02, -5.94000e-02, -5.59100e-02, -6.26900e-03,  7.50100e-03,  2.36400e-03, -7.46800e-04, -4.47000e-04],
                           [ 1.44700e-02,  1.73600e-02, -2.99600e-02, -1.34900e-02,  1.20600e-03,  2.41700e-03,  3.28200e-04, -2.22300e-04],
                           [ 2.63200e-02,  5.00000e-02, -1.30000e-03, -1.04200e-02, -2.67900e-03,  9.15100e-04,  5.43000e-04,  4.36800e-06],
                           [ 1.01100e-02,  4.31500e-02,  1.59500e-02, -2.51800e-03, -3.23500e-03, -6.20800e-04,  2.61500e-04,  9.95100e-05]])
#  aQOOHb(+M) <=> aQOOH[O](+M)                         1.000e+00 0.000     0.000
#      TCHEB/ 180.000   1500.000 /
#      PCHEB/ 0.010     98.692   /
#      CHEB/ 10 8/
#      CHEB/ -1.279e+01   2.522e+00    -2.726e-01   -7.266e-03   1.117e-02   /
#      CHEB/ 2.044e-03    -2.285e-03   -1.365e-04   2.727e+00    1.499e+00   /
#      CHEB/ 9.358e-02    1.517e-02    -4.886e-03   -5.863e-04   3.961e-03   /
#      CHEB/ -4.516e-04   -3.231e+00   1.349e-01    7.710e-02    -1.351e-02  /
#      CHEB/ 1.140e-02    -1.440e-03   -3.081e-03   1.074e-03    -1.843e+00  /
#      CHEB/ -1.084e-01   5.367e-02    -5.880e-03   5.637e-03    4.914e-03   /
#      CHEB/ -1.339e-03   -1.104e-03   -9.214e-01   -1.774e-01   -1.611e-03  /
#      CHEB/ 8.092e-04    -4.288e-03   5.326e-03    2.116e-03    -7.413e-04  /
#      CHEB/ -4.139e-01   -1.458e-01   -3.957e-02   -3.564e-03   -4.984e-03  /
#      CHEB/ -3.344e-04   2.059e-03    7.143e-04    -1.279e-01   -5.468e-02  /
#      CHEB/ -4.567e-02   -5.933e-03   -3.108e-03   -2.266e-03   2.231e-04   /
#      CHEB/ 7.033e-04    3.965e-03    1.215e-02    -1.956e-02   -8.429e-03  /
#      CHEB/ -1.073e-03   -1.387e-03   -7.807e-04   9.608e-05    1.543e-02   /
#      CHEB/ 6.162e-02    4.147e-03    -4.884e-03   -1.480e-03   1.394e-04   /
#      CHEB/ -5.973e-04   -4.347e-04   -2.456e-03   4.562e-02    2.087e-02   /
#      CHEB/ 1.329e-03    -9.999e-04   -5.154e-04   3.293e-05    -2.857e-04  /

# Reaction 6
chebyshev_reaction('aQOOHg (+ M) <=> aQOOH[O] (+ M)',
                   Tmin=180.0, Tmax=1500.0,
                   Pmin=(0.01, 'atm'), Pmax=(98.692, 'atm'),
                   coeffs=[[-6.47200e+00,  3.85600e+00, -8.10200e-01,  7.68500e-02,  2.27300e-02, -1.65800e-02,  5.44400e-03, -1.01800e-03],
                           [-5.09100e+00,  2.25000e-01,  7.48600e-01, -1.39000e-01, -1.76000e-02,  2.14200e-02, -5.24700e-03,  1.20800e-03],
                           [-4.24700e+00, -3.31400e-01, -2.20700e-02,  1.34400e-02,  1.01600e-03, -4.98100e-04, -9.59300e-04,  4.41100e-05],
                           [-1.75500e+00, -1.11900e-01, -8.10000e-02, -1.19400e-02, -2.95600e-03,  3.67700e-03,  5.18000e-04, -7.86900e-04],
                           [-6.82700e-01,  7.81100e-02, -1.61400e-02, -8.34100e-03, -9.06400e-03, -4.81300e-04,  1.64800e-03,  1.80000e-04],
                           [-2.88600e-01,  2.05200e-02,  1.58300e-02,  6.41500e-03, -7.27100e-04, -3.31000e-03, -3.21700e-05,  1.54500e-04],
                           [-1.42400e-01, -2.39700e-02, -3.49100e-03,  6.20500e-03,  2.47700e-03,  5.39400e-04, -7.07800e-04, -2.43200e-04],
                           [-7.26600e-02, -8.65200e-03, -1.00500e-02, -3.22600e-03,  1.00700e-04,  1.35300e-04,  8.97900e-04, -7.47200e-05],
                           [-2.96300e-02,  1.51600e-02, -8.75500e-05, -3.72400e-03, -1.69300e-03, -4.07600e-05, -3.46600e-04,  4.07200e-04],
                           [ 8.59600e-03, -1.21100e-02,  9.55600e-03,  3.18400e-03,  2.84400e-04, -1.16200e-03, -2.40900e-05, -1.77000e-04]])

# Reaction 7
chebyshev_reaction('aRO2 (+ M) <=> aQOOH[O] (+ M)',
                   Tmin=180.0, Tmax=1500.0,
                   Pmin=(0.01, 'atm'), Pmax=(98.692, 'atm'),
                   coeffs=[[-1.24400e+01,  5.48100e+00, -1.49200e+00,  3.39500e-01, -1.66400e-02, -2.88100e-02,  1.28000e-02, -2.15800e-03],
                           [ 6.44100e+00, -6.92800e-02,  8.37700e-01, -3.07300e-01,  5.16700e-02,  1.23800e-02, -8.81800e-03,  2.32600e-03],
                           [-3.70400e+00, -4.60000e-02,  1.60600e-01, -4.00100e-02, -8.44100e-03,  4.17000e-03, -7.12900e-04,  6.26600e-04],
                           [-1.66800e+00, -1.11800e-01,  6.22600e-02,  2.24300e-03, -5.82400e-03,  6.04800e-04, -8.98100e-04,  2.74100e-04],
                           [-7.45100e-01, -8.73900e-02,  6.02500e-03,  7.36600e-03,  1.07700e-03,  2.58800e-04, -4.69000e-04, -1.11100e-04],
                           [-3.52500e-01, -4.84300e-02, -1.61800e-02, -1.70700e-03,  1.71600e-03,  8.71500e-04, -1.97900e-04, -1.08800e-04],
                           [-1.36900e-01, -2.29900e-02, -1.21000e-02, -5.77600e-03, -5.15600e-04,  6.32000e-04,  7.42700e-05, -6.66300e-05],
                           [-2.65000e-02, -6.63100e-04, -5.62400e-03, -9.41700e-04, -1.99400e-03, -3.14500e-04,  2.98300e-04,  2.20300e-05],
                           [-2.27900e-02,  2.18200e-02,  9.51400e-03, -3.53300e-03, -2.38600e-04,  9.90800e-05, -2.58700e-04,  3.69300e-05],
                           [-9.28000e-03,  9.35200e-03,  5.07300e-03,  4.19900e-03, -6.20400e-04, -6.70500e-04,  2.21300e-04, -3.16100e-05]])

# Reaction 8
chebyshev_reaction('aadduct (+ M) <=> aQOOH[O] (+ M)',
                   Tmin=180.0, Tmax=1500.0,
                   Pmin=(0.01, 'atm'), Pmax=(98.692, 'atm'),
                   coeffs=[[-1.25500e+01,  3.80700e+00, -1.50600e+00,  3.71900e-01, -2.53300e-02, -2.66300e-02,  1.18200e-02, -1.53100e-03],
                           [ 1.49300e+00,  1.52300e-03,  8.36900e-01, -3.01400e-01,  5.72000e-02,  7.53400e-03, -9.29400e-03,  3.69300e-03],
                           [-4.39800e+00, -4.89800e-02,  1.70900e-01, -3.88700e-02, -8.98900e-03,  2.39600e-03,  5.23800e-04,  1.15900e-03],
                           [-2.00200e+00, -1.07300e-01,  6.58300e-02,  5.38400e-03, -8.90800e-03,  5.86100e-05,  9.45200e-04,  3.61400e-04],
                           [-8.85400e-01, -7.41600e-02,  8.59800e-03,  6.30600e-03,  4.78300e-05,  3.05400e-03, -4.80500e-04, -1.25500e-03],
                           [-4.10300e-01, -3.63100e-02, -1.81400e-02,  2.53300e-04,  2.57000e-03,  1.89100e-04, -7.29100e-04,  1.54000e-04],
                           [-1.64000e-01, -1.85600e-02, -1.23800e-02, -4.37200e-03, -6.18700e-04, -1.89600e-04,  3.03300e-04,  3.13000e-04],
                           [-4.48900e-02,  2.25400e-03, -6.56900e-03, -5.72600e-04, -1.13600e-03, -5.81300e-04, -1.68400e-04,  3.79800e-05],
                           [-3.34800e-02,  2.35500e-02,  1.09400e-02, -5.24700e-03, -7.32300e-04,  1.39300e-03,  1.15700e-05, -4.86000e-04],
                           [-6.67700e-03, -6.02100e-04,  8.39400e-03,  6.00100e-03, -3.07100e-03, -7.27400e-04,  9.46900e-04,  1.93400e-04]])

# Reaction 9
chebyshev_reaction('O2 + aR (+ M) <=> aQOOH[O] (+ M)',
                   Tmin=180.0, Tmax=1500.0,
                   Pmin=(0.01, 'atm'), Pmax=(98.692, 'atm'),
                   coeffs=[[ 7.51000e-01,  3.90300e+00,  5.42300e-01, -2.54300e-01, -2.29600e-01,  4.68200e-02,  1.03500e-01, -5.51800e-03],
                           [-1.88300e+00, -2.04500e+00, -4.34800e-01,  4.50100e-01,  2.89600e-01, -1.16400e-01, -1.53200e-01,  3.02900e-02],
                           [-1.71200e+00,  5.71200e-02, -1.03100e-01, -1.43900e-01, -5.22000e-03,  9.39800e-02,  3.74800e-02, -4.59600e-02],
                           [-7.70800e-01,  6.56000e-02, -1.13400e-02, -5.69300e-02, -4.04200e-02,  2.26800e-03,  2.67300e-02,  1.58100e-02],
                           [-3.27600e-01,  2.41900e-02,  8.69400e-04,  1.97900e-03, -1.32400e-02, -2.22900e-02, -6.24700e-03,  1.29600e-02],
                           [-1.81800e-01,  1.62400e-02,  8.02000e-03,  2.97300e-03, -3.55700e-03, -6.77000e-03, -6.96900e-03, -3.24100e-03],
                           [-8.20500e-02,  3.92500e-04,  1.20400e-02,  1.88400e-03, -9.34000e-04,  2.17200e-04, -1.78200e-03, -3.91000e-03],
                           [-2.62000e-02,  3.00500e-03,  2.50500e-03,  2.79500e-03,  4.60800e-03,  1.97600e-03, -1.39500e-03, -1.82200e-03],
                           [-4.13500e-03, -4.76100e-03,  6.38400e-04,  7.88100e-03,  2.98400e-03, -8.08400e-04,  7.45400e-04,  1.21900e-03],
                           [-2.56500e-02,  1.28700e-02,  2.20300e-03, -1.11600e-03,  1.37700e-03,  3.09200e-03,  1.03900e-03, -7.58700e-04]])
#  aQOOHb(+M) <=> aQOOHg(+M)                           1.000e+00 0.000     0.000
#      TCHEB/ 180.000   1500.000 /
#      PCHEB/ 0.010     98.692   /
#      CHEB/ 10 8/
#      CHEB/ -1.287e+01   2.824e+00    -4.624e-01   -1.138e-01   2.666e-02   /
#      CHEB/ 8.817e-03    -2.792e-03   -8.225e-04   2.091e+00    2.077e+00   /
#      CHEB/ 4.476e-01    3.255e-02    -4.573e-02   -1.046e-02   4.163e-03   /
#      CHEB/ 1.865e-03    -3.489e+00   -6.033e-01   1.581e-01    1.200e-01   /
#      CHEB/ 1.367e-03    -7.301e-03   -6.730e-04   -3.846e-04   -1.896e+00  /
#      CHEB/ -5.064e-01   -6.969e-02   6.959e-03    1.264e-02    6.882e-03   /
#      CHEB/ 4.032e-04    -1.074e-03   -8.499e-01   -1.860e-01   -7.099e-02  /
#      CHEB/ -1.256e-02   6.763e-04    -5.950e-06   1.324e-03    9.972e-04   /
#      CHEB/ -3.198e-01   -1.129e-01   -4.607e-02   3.482e-03    4.628e-03   /
#      CHEB/ -2.858e-03   -7.947e-04   5.931e-04    -1.081e-01   -5.163e-02  /
#      CHEB/ -5.043e-02   -3.628e-03   7.320e-03    1.509e-03    -6.681e-04  /
#      CHEB/ -4.133e-04   -4.058e-02   3.266e-02    -3.551e-02   -1.672e-02  /
#      CHEB/ 5.831e-05    2.749e-03    7.423e-04    -1.100e-04   1.614e-02   /
#      CHEB/ 5.139e-02    5.728e-04    -1.286e-02   -5.099e-03   9.704e-05   /
#      CHEB/ 5.608e-04    2.997e-04    2.752e-02    3.363e-02    2.183e-02   /
#      CHEB/ -2.053e-04   -3.276e-03   -1.351e-03   -3.146e-04   6.298e-05   /
#  aQOOH[O](+M) <=> aQOOHg(+M)                         1.000e+00 0.000     0.000
#      TCHEB/ 180.000   1500.000 /
#      PCHEB/ 0.010     98.692   /
#      CHEB/ 10 8/
#      CHEB/ -4.835e+00   3.856e+00    -8.102e-01   7.685e-02    2.273e-02   /
#      CHEB/ -1.658e-02   5.444e-03    -1.018e-03   -6.227e+00   2.250e-01   /
#      CHEB/ 7.486e-01    -1.390e-01   -1.760e-02   2.142e-02    -5.247e-03  /
#      CHEB/ 1.208e-03    -4.102e+00   -3.314e-01   -2.207e-02   1.344e-02   /
#      CHEB/ 1.016e-03    -4.981e-04   -9.593e-04   4.411e-05    -1.706e+00  /
#      CHEB/ -1.119e-01   -8.100e-02   -1.194e-02   -2.956e-03   3.677e-03   /
#      CHEB/ 5.180e-04    -7.869e-04   -6.698e-01   7.811e-02    -1.614e-02  /
#      CHEB/ -8.341e-03   -9.064e-03   -4.813e-04   1.648e-03    1.800e-04   /