units(length='cm', time='s', quantity='mol', act_energy='kcal/mol')

ideal_gas(name='gas',
          elements="H D T C Ci O Oi N Ne Ar He Si S F Cl Br I X",
          species="""propene3ol       OH               disub_c4ether
                     H2O              disub_epoxy      gQOOHa
                     propene1ol       gQOOHb           ipropylOOH
                     galdoxy          galkene          CH2O
                     O2               gRO2             gQOOHg
                     gR               galdol           monosub_c4ether
                     HO2              gQOOH[O]""",
          reactions='all',
          initial_state=state(temperature=300.0, pressure=OneAtm))

#-------------------------------------------------------------------------------
# Element data
#-------------------------------------------------------------------------------

element(symbol='Ci', atomic_mass=13.003)
element(symbol='D', atomic_mass=2.014)
element(symbol='Oi', atomic_mass=18.0)
element(symbol='T', atomic_mass=3.016)
element(symbol='X', atomic_mass=195.083)
#-------------------------------------------------------------------------------
# Species data
#-------------------------------------------------------------------------------

species(name='propene3ol',
        atoms='C:3 H:6 O:1',
        thermo=(NASA([10.00, 444.81],
                     [ 3.92769709E+00,  4.89977303E-03,  1.13094874E-04,
                      -2.59008187E-07,  1.86205760E-10, -1.68242524E+04,
                       9.90805416E+00]),
                NASA([444.81, 3000.00],
                     [ 2.61720343E+00,  3.01777872E-02, -1.76511625E-05,
                       5.14864061E-09, -5.91153761E-13, -1.68411528E+04,
                       1.36683107E+01])))

species(name='OH',
        atoms='H:1 O:1',
        thermo=(NASA([10.00, 984.14],
                     [ 3.49686242E+00,  1.83973160E-04, -9.97634499E-07,
                       1.56942783E-09, -6.10128175E-13,  3.41673934E+03,
                       1.48093120E+00]),
                NASA([984.14, 3000.00],
                     [ 3.45221464E+00, -2.95124034E-04,  7.39418622E-07,
                      -2.89309866E-10,  3.53041498E-14,  3.45751599E+03,
                       1.85813897E+00])))

species(name='disub_c4ether',
        atoms='C:4 H:8 O:2',
        thermo=(NASA([10.00, 413.50],
                     [ 3.78241323E+00,  1.89501763E-02,  8.65302396E-05,
                      -1.80580575E-07,  1.13656264E-10, -3.81345230E+04,
                       1.09982450E+01]),
                NASA([413.50, 3000.00],
                     [ 4.29420885E-01,  5.13851903E-02, -3.11292293E-05,
                       9.11498284E-09, -1.03192718E-12, -3.78572287E+04,
                       2.42134976E+01])))

species(name='H2O',
        atoms='H:2 O:1',
        thermo=(NASA([10.00, 773.84],
                     [ 4.00473541E+00, -2.39729134E-04,  8.11862955E-07,
                       1.47891862E-09, -1.19783539E-12, -3.03533807E+04,
                      -9.96254147E-02]),
                NASA([773.84, 3000.00],
                     [ 3.52133374E+00,  1.05377009E-03,  6.40722099E-07,
                      -3.86240235E-10,  5.49243294E-14, -3.02424794E+04,
                       2.34173094E+00])))

species(name='disub_epoxy',
        atoms='C:4 H:8 O:2',
        thermo=(NASA([10.00, 549.41],
                     [ 3.89863211E+00,  5.97532637E-03,  1.66685676E-04,
                      -3.10743768E-07,  1.78330192E-10, -3.62995455E+04,
                       1.13847308E+01]),
                NASA([549.41, 3000.00],
                     [-6.40277648E-01,  6.05960003E-02, -4.13427220E-05,
                       1.31555461E-08, -1.57685017E-12, -3.61264286E+04,
                       2.76005436E+01])))

species(name='gQOOHa',
        atoms='C:4 H:9 O:3',
        thermo=(NASA([10.00, 160.74],
                     [ 3.80808147E+00,  2.31043884E-02,  5.26945984E-04,
                      -3.11500696E-06,  6.03881958E-09, -2.37013077E+04,
                       1.17645316E+01]),
                NASA([160.74, 3000.00],
                     [ 2.90630300E+00,  6.50241173E-02, -4.60073244E-05,
                       1.51330930E-08, -1.87074267E-12, -2.36974832E+04,
                       1.36838819E+01])))

species(name='propene1ol',
        atoms='C:3 H:6 O:1',
        thermo=(NASA([10.00, 459.42],
                     [ 3.91245344E+00,  5.85800161E-03,  1.15412006E-04,
                      -2.68014417E-07,  1.91800131E-10, -2.04713599E+04,
                       8.14807684E+00]),
                NASA([459.42, 3000.00],
                     [ 3.14049093E+00,  2.95550898E-02, -1.73843684E-05,
                       5.11506211E-09, -5.92966137E-13, -2.05795824E+04,
                       9.32215170E+00])))

species(name='gQOOHb',
        atoms='C:4 H:9 O:3',
        thermo=(NASA([10.00, 1018.67],
                     [ 3.99028351E+00,  4.29665712E-02,  2.28338778E-05,
                      -5.67914439E-08,  2.29383258E-11, -2.40091559E+04,
                       1.20326731E+01]),
                NASA([1018.67, 3000.00],
                     [ 1.38304153E+01,  3.88527019E-02, -2.19473905E-05,
                       5.78719895E-09, -5.85097740E-13, -2.78052407E+04,
                      -4.44147388E+01])))

species(name='ipropylOOH',
        atoms='C:3 H:7 O:2',
        thermo=(NASA([10.00, 405.01],
                     [ 3.30075623E+00,  7.58672756E-02, -3.35754269E-04,
                       8.05972164E-07, -6.68864582E-10, -1.79638874E+03,
                       1.43372849E+01]),
                NASA([405.01, 3000.00],
                     [ 2.51742509E+00,  3.72760950E-02, -2.12450220E-05,
                       5.83593926E-09, -6.22110649E-13, -1.35298113E+03,
                       2.20991392E+01])))

species(name='galdoxy',
        atoms='C:4 H:7 O:2',
        thermo=(NASA([10.00, 209.62],
                     [ 3.82641108E+00,  1.84758886E-02,  3.43073800E-04,
                      -1.82817005E-06,  2.98516720E-09, -1.64354546E+04,
                       1.17972706E+01]),
                NASA([209.62, 3000.00],
                     [ 4.22049016E+00,  4.03370149E-02, -2.36129482E-05,
                       6.72979114E-09, -7.47862493E-13, -1.65165243E+04,
                       8.97211724E+00])))

species(name='galkene',
        atoms='C:4 H:8 O:1',
        thermo=(NASA([10.00, 383.47],
                     [ 3.84035604E+00,  1.20378740E-02,  1.87486319E-04,
                      -5.44759148E-07,  4.80711015E-10, -2.04382255E+04,
                       1.02570291E+01]),
                NASA([383.47, 3000.00],
                     [ 4.00413385E+00,  3.79025144E-02, -2.15435710E-05,
                       6.15213311E-09, -6.97446345E-13, -2.06535149E+04,
                       6.98052628E+00])))

species(name='CH2O',
        atoms='C:1 H:2 O:1',
        thermo=(NASA([10.00, 601.31],
                     [ 4.03190845E+00, -1.93233367E-03,  8.89743345E-06,
                       2.98105926E-09, -7.90813886E-12, -1.42276270E+04,
                       3.47574660E+00]),
                NASA([601.31, 3000.00],
                     [ 1.40134195E+00,  9.48858016E-03, -4.43088317E-06,
                       9.48452194E-10, -7.43790219E-14, -1.38013869E+04,
                       1.57423780E+01])))

species(name='O2',
        atoms='O:2',
        thermo=(NASA([10.00, 605.96],
                     [ 3.50743498E+00, -4.43860349E-04,  1.45938058E-06,
                       1.61509333E-09, -2.32050052E-12, -9.24756224E+02,
                       4.72183634E+00]),
                NASA([605.96, 3000.00],
                     [ 2.87462882E+00,  2.17840991E-03, -1.18262921E-06,
                       2.86910493E-10, -2.53297146E-14, -8.19517838E+02,
                       7.69331810E+00])))

species(name='gRO2',
        atoms='C:4 H:9 O:3',
        thermo=(NASA([10.00, 177.33],
                     [ 3.70632176E+00,  3.49733664E-02,  4.64036392E-04,
                      -3.18637835E-06,  6.38178607E-09, -2.94695634E+04,
                       1.24459269E+01]),
                NASA([177.33, 3000.00],
                     [ 4.82062697E+00,  5.17179689E-02, -3.18386818E-05,
                       9.52247045E-09, -1.10180288E-12, -2.95749339E+04,
                       7.14082953E+00])))

species(name='gQOOHg',
        atoms='C:4 H:9 O:3',
        thermo=(NASA([10.00, 475.03],
                     [ 3.42273720E+00,  4.98344215E-02,  6.47820920E-05,
                      -2.49842966E-07,  1.98636537E-10, -2.18647740E+04,
                       1.41578583E+01]),
                NASA([475.03, 3000.00],
                     [ 5.94049074E+00,  5.53778585E-02, -3.71708255E-05,
                       1.17540477E-08, -1.40812095E-12, -2.24057283E+04,
                       7.09201218E-01])))

species(name='gR',
        atoms='C:4 H:9 O:1',
        thermo=(NASA([10.00, 638.24],
                     [ 3.37074633E+00,  5.17529751E-02, -6.54872940E-05,
                       6.88084237E-08, -3.21569794E-11, -1.04949226E+04,
                       1.14339669E+01]),
                NASA([638.24, 3000.00],
                     [ 3.99410860E+00,  4.06314915E-02, -2.23932510E-05,
                       6.08356263E-09, -6.49884708E-13, -1.04275479E+04,
                       9.85769960E+00])))

species(name='galdol',
        atoms='C:4 H:8 O:2',
        thermo=(NASA([10.00, 506.68],
                     [ 3.85380874E+00,  9.21272695E-03,  1.86712348E-04,
                      -3.96417049E-07,  2.55528268E-10, -4.55560033E+04,
                       1.24312743E+01]),
                NASA([506.68, 3000.00],
                     [ 1.49710213E+00,  5.65979142E-02, -3.87709084E-05,
                       1.23682052E-08, -1.48287964E-12, -4.56866127E+04,
                       1.85531759E+01])))

species(name='monosub_c4ether',
        atoms='C:4 H:8 O:2',
        thermo=(NASA([10.00, 380.36],
                     [ 3.47743996E+00,  6.08051311E-02, -2.78518945E-04,
                       8.23182713E-07, -7.87158031E-10, -3.21298487E+04,
                       1.06415154E+01]),
                NASA([380.36, 3000.00],
                     [-1.09346901E+00,  5.35985968E-02, -3.21081420E-05,
                       9.20818293E-09, -1.01830294E-12, -3.13822886E+04,
                       3.35312368E+01])))

species(name='HO2',
        atoms='H:1 O:2',
        thermo=(NASA([10.00, 891.11],
                     [ 4.02887004E+00, -1.75769289E-03,  1.08726004E-05,
                      -1.13812972E-08,  3.90113097E-12,  4.95165001E+02,
                       4.69302008E+00]),
                NASA([891.11, 3000.00],
                     [ 3.06571044E+00,  4.28505005E-03, -2.19325920E-06,
                       5.58882699E-10, -5.61246669E-14,  5.98557610E+02,
                       8.84564156E+00])))

species(name='gQOOH[O]',
        atoms='C:4 H:9 O:3',
        thermo=(NASA([10.00, 535.23],
                     [ 3.83107445E+00,  1.02302002E-02,  2.29377261E-04,
                      -4.59095575E-07,  2.77765018E-10, -1.82893451E+04,
                       1.41034859E+01]),
                NASA([535.23, 3000.00],
                     [-4.19283096E-01,  7.69784620E-02, -5.57279000E-05,
                       1.81378295E-08, -2.18295635E-12, -1.83354585E+04,
                       2.72711816E+01])))

#-------------------------------------------------------------------------------
# Reaction data
#-------------------------------------------------------------------------------

# Reaction 1
chebyshev_reaction('gQOOH[O] (+ M) <=> gRO2 (+ M)',
                   Tmin=180.0, Tmax=1500.0,
                   Pmin=(0.01, 'atm'), Pmax=(98.692, 'atm'),
                   coeffs=[[ 5.41900e+00,  1.06900e+00, -1.35100e-01, -7.50800e-04,  4.16000e-03,  6.60300e-04, -4.56000e-04, -1.70100e-04],
                           [-3.04300e+00,  1.00000e+00,  1.94100e-02, -2.37200e-02,  1.92700e-03,  1.66100e-03, -5.78700e-04, -3.40900e-04],
                           [-2.89900e+00,  3.05800e-02,  6.33100e-02,  2.29500e-02, -2.05000e-03, -2.62400e-03, -5.71300e-04,  1.31100e-04],
                           [-1.61000e+00, -1.20200e-01, -1.49500e-03,  1.93000e-02,  4.71300e-03, -2.36100e-03, -1.29700e-03,  1.25100e-04],
                           [-7.41600e-01,  2.15300e-02,  4.81100e-03, -4.65200e-04, -3.20600e-05, -5.34600e-04, -2.86200e-04,  3.05600e-05],
                           [-3.41300e-01,  9.11600e-02,  4.20700e-02,  1.42000e-03, -5.40500e-03, -1.73100e-03,  3.78700e-04,  3.19400e-04],
                           [-1.89000e-01,  5.78000e-02,  4.96200e-02,  1.10200e-02, -3.03100e-03, -2.44500e-03, -1.68900e-04,  3.12700e-04],
                           [-1.28000e-01, -3.69300e-03,  3.03100e-02,  1.23700e-02,  9.41800e-04, -1.16800e-03, -4.60200e-04,  2.39700e-05],
                           [-9.12800e-02, -3.89500e-02,  9.98500e-03,  7.87100e-03,  1.54600e-03, -1.04100e-04, -1.27900e-04, -3.83700e-05],
                           [-5.29800e-02, -4.18800e-02,  1.22700e-03,  5.17100e-03,  4.63400e-04, -3.74200e-04,  7.75800e-05,  1.00500e-04]])

# Reaction 2
chebyshev_reaction('gQOOHa (+ M) <=> gRO2 (+ M)',
                   Tmin=180.0, Tmax=1500.0,
                   Pmin=(0.01, 'atm'), Pmax=(98.692, 'atm'),
                   coeffs=[[ 2.85300e+00,  7.84400e-01, -3.04700e-02, -6.03100e-04, -4.38300e-04, -1.81000e-04, -7.73200e-05, -5.26000e-05],
                           [ 1.92900e-01,  1.26700e+00, -7.30000e-03, -6.21000e-03, -1.17500e-03, -3.30900e-04, -7.08500e-05, -8.42700e-05],
                           [-2.73400e+00,  6.22200e-01,  7.51000e-02, -5.97600e-03, -3.60100e-03, -1.33000e-04,  8.02000e-05, -1.38500e-05],
                           [-1.79200e+00,  9.10600e-02,  8.57700e-02,  6.81500e-03, -5.25500e-03, -5.97000e-04,  2.50200e-04,  7.47000e-05],
                           [-9.12500e-01, -1.12000e-01,  3.36500e-02,  1.53400e-02, -2.69600e-03, -1.43500e-03,  1.64700e-04,  1.48000e-04],
                           [-3.73600e-01, -7.25500e-02, -9.51100e-03,  9.07300e-03,  8.39400e-04, -1.31100e-03, -1.86600e-04,  1.27000e-04],
                           [-1.66100e-01,  2.43300e-02, -6.31900e-03, -1.84900e-03,  5.65400e-04, -4.37800e-04, -3.30400e-04,  2.49900e-05],
                           [-5.42200e-02,  6.36500e-02,  2.36200e-02, -3.51700e-03, -2.70000e-03, -3.49500e-04, -6.26700e-05,  1.52900e-05],
                           [-8.24300e-02,  3.50000e-02,  4.24800e-02,  5.50100e-03, -4.46400e-03, -1.37900e-03,  2.10900e-04,  1.78600e-04],
                           [-6.20700e-02, -1.86100e-02,  3.40800e-02,  1.51600e-02, -2.22200e-03, -2.21700e-03,  1.21400e-04,  3.32800e-04]])

# Reaction 3
chebyshev_reaction('gQOOHg (+ M) <=> gRO2 (+ M)',
                   Tmin=180.0, Tmax=1500.0,
                   Pmin=(0.01, 'atm'), Pmax=(98.692, 'atm'),
                   coeffs=[[ 1.99100e+00,  6.06800e-01, -4.02400e-02,  3.75200e-04,  2.25700e-04,  8.92500e-05, -9.44500e-05, -5.31300e-05],
                           [ 2.85100e+00,  1.07000e+00, -4.60400e-02, -4.18700e-03,  6.50800e-04,  1.58500e-04, -2.00800e-04, -1.02900e-04],
                           [-1.62700e+00,  7.17600e-01,  2.76700e-02, -1.16300e-02,  9.83400e-05,  1.90900e-04, -2.23700e-04, -8.98700e-05],
                           [-1.43600e+00,  3.28200e-01,  8.33000e-02, -1.00500e-02, -2.14900e-03,  1.61100e-04, -1.90500e-04, -6.13800e-05],
                           [-1.01800e+00,  4.33000e-02,  8.92500e-02,  1.11100e-03, -4.33900e-03, -3.16200e-04, -6.58900e-05, -1.34200e-07],
                           [-5.47200e-01, -9.21100e-02,  5.70100e-02,  1.20000e-02, -4.07600e-03, -1.18800e-03,  4.34400e-05,  1.06000e-04],
                           [-3.12000e-01, -1.11900e-01,  1.81400e-02,  1.43500e-02, -1.51200e-03, -1.73900e-03,  9.45200e-06,  2.17200e-04],
                           [-1.40700e-01, -7.61200e-02, -4.48600e-03,  8.66700e-03,  9.07700e-04, -1.39000e-03, -1.07600e-04,  2.49300e-04],
                           [-5.68700e-02, -3.27700e-02, -6.91600e-03,  1.43300e-03,  1.23900e-03, -4.07600e-04, -1.08300e-04,  1.61200e-04],
                           [-2.65000e-02, -5.40700e-03,  2.00600e-03, -1.65200e-03, -2.26000e-04,  3.71100e-04,  8.49800e-05,  1.31100e-05]])

# Reaction 4
chebyshev_reaction('gQOOHb (+ M) <=> gRO2 (+ M)',
                   Tmin=180.0, Tmax=1500.0,
                   Pmin=(0.01, 'atm'), Pmax=(98.692, 'atm'),
                   coeffs=[[-1.52100e+00,  1.39800e+00, -4.18400e-02, -1.51700e-02, -4.94600e-03,  1.47600e-03,  3.12200e-04, -1.58000e-04],
                           [ 2.06700e+00,  1.66600e+00,  7.67200e-02, -1.88900e-02, -6.16000e-03, -4.66000e-04,  2.35700e-04, -6.33600e-05],
                           [-1.99000e+00,  1.99400e-01,  9.85000e-02,  4.40500e-02, -2.35100e-03, -4.68300e-03, -6.94200e-04,  2.99500e-04],
                           [-1.44100e+00, -2.49400e-01,  5.56000e-03,  4.11000e-02,  5.18200e-03, -2.59900e-03, -1.05400e-03,  6.99600e-05],
                           [-7.87500e-01, -8.04800e-02, -2.24400e-02, -2.66600e-03,  3.85600e-03,  1.15400e-03, -2.18000e-04, -1.92900e-04],
                           [-3.88300e-01,  9.57100e-02, -4.40000e-03, -1.56800e-02, -9.30300e-04,  6.89900e-04,  1.05400e-04, -1.36900e-05],
                           [-2.23000e-01,  1.17000e-01,  1.44600e-02, -2.61600e-03, -2.14700e-03, -1.02900e-03, -2.95100e-04,  1.18200e-04],
                           [-1.06400e-01,  4.60700e-02,  3.41900e-02,  5.81100e-03, -9.08800e-04, -1.26500e-03, -3.31300e-04,  4.96200e-05],
                           [-8.48700e-02, -3.95400e-03,  3.09100e-02,  9.48400e-03, -3.39400e-04, -5.64800e-04, -7.94500e-05,  1.10500e-05],
                           [-5.08800e-02, -3.41800e-02,  1.77600e-02,  8.52800e-03,  3.72400e-04, -1.18300e-04,  5.66100e-05,  3.21900e-05]])

# Reaction 5
chebyshev_reaction('O2 + gR (+ M) <=> gRO2 (+ M)',
                   Tmin=180.0, Tmax=1500.0,
                   Pmin=(0.01, 'atm'), Pmax=(98.692, 'atm'),
                   coeffs=[[ 7.93900e+00,  3.78800e-01, -7.36600e-02,  9.40600e-03, -1.66900e-03,  2.61600e-04, -8.38700e-05, -4.13600e-05],
                           [-1.29700e+00,  7.01200e-01, -1.22500e-01,  1.07900e-02, -1.09200e-03, -8.24800e-05, -2.16500e-05, -1.08800e-04],
                           [-7.88000e-01,  5.68800e-01, -7.02500e-02, -2.70500e-03,  1.48400e-03, -4.93400e-04,  5.04000e-06, -8.25200e-05],
                           [-5.53100e-01,  4.06600e-01, -1.47500e-02, -1.29600e-02,  2.17300e-03, -3.46200e-04, -9.01300e-05, -2.70700e-05],
                           [-3.96600e-01,  2.55000e-01,  2.60900e-02, -1.54700e-02,  6.64800e-04,  1.14400e-04, -1.72000e-04,  1.49200e-05],
                           [-2.78400e-01,  1.35600e-01,  4.65600e-02, -1.12400e-02, -1.68800e-03,  3.68900e-04, -1.22400e-04,  2.89000e-05],
                           [-1.89600e-01,  5.29000e-02,  4.97400e-02, -3.88200e-03, -3.39900e-03,  1.66600e-04,  3.54600e-05,  3.89800e-05],
                           [-1.24700e-01,  1.94700e-03,  4.21800e-02,  3.12200e-03, -3.76100e-03, -3.60500e-04,  1.88800e-04,  6.96700e-05],
                           [-7.85800e-02, -2.53500e-02,  2.99500e-02,  7.84400e-03, -2.92000e-03, -8.87600e-04,  2.44100e-04,  1.16600e-04],
                           [-4.67900e-02, -3.65800e-02,  1.72000e-02,  9.83800e-03, -1.44500e-03, -1.15000e-03,  1.89200e-04,  1.50700e-04]])
#  gRO2(+M) <=> gQOOH[O](+M)                           1.000e+00 0.000     0.000
#      TCHEB/ 180.000   1500.000 /
#      PCHEB/ 0.010     98.692   /
#      CHEB/ 10 8/
#      CHEB/ -1.017e+01   1.069e+00    -1.351e-01   -7.508e-04   4.160e-03   /
#      CHEB/ 6.603e-04    -4.560e-04   -1.701e-04   8.562e+00    1.000e+00   /
#      CHEB/ 1.941e-02    -2.372e-02   1.927e-03    1.661e-03    -5.787e-04  /
#      CHEB/ -3.409e-04   -2.726e+00   3.058e-02    6.331e-02    2.295e-02   /
#      CHEB/ -2.050e-03   -2.624e-03   -5.713e-04   1.311e-04    -1.485e+00  /
#      CHEB/ -1.202e-01   -1.495e-03   1.930e-02    4.713e-03    -2.361e-03  /
#      CHEB/ -1.297e-03   1.251e-04    -6.879e-01   2.153e-02    4.811e-03   /
#      CHEB/ -4.652e-04   -3.206e-05   -5.346e-04   -2.862e-04   3.056e-05   /
#      CHEB/ -3.223e-01   9.116e-02    4.207e-02    1.420e-03    -5.405e-03  /
#      CHEB/ -1.731e-03   3.787e-04    3.194e-04    -1.828e-01   5.780e-02   /
#      CHEB/ 4.962e-02    1.102e-02    -3.031e-03   -2.445e-03   -1.689e-04  /
#      CHEB/ 3.127e-04    -1.261e-01   -3.693e-03   3.031e-02    1.237e-02   /
#      CHEB/ 9.418e-04    -1.168e-03   -4.602e-04   2.397e-05    -9.081e-02  /
#      CHEB/ -3.895e-02   9.985e-03    7.871e-03    1.546e-03    -1.041e-04  /
#      CHEB/ -1.279e-04   -3.837e-05   -5.301e-02   -4.188e-02   1.227e-03   /
#      CHEB/ 5.171e-03    4.634e-04    -3.742e-04   7.758e-05    1.005e-04   /

# Reaction 6
chebyshev_reaction('gQOOHa (+ M) <=> gQOOH[O] (+ M)',
                   Tmin=180.0, Tmax=1500.0,
                   Pmin=(0.01, 'atm'), Pmax=(98.692, 'atm'),
                   coeffs=[[-8.46400e+00,  2.58100e-01, -2.66100e-01, -9.97700e-03,  9.13800e-03,  2.33300e-03, -6.34000e-04, -5.40700e-04],
                           [ 1.96900e+00,  2.02600e+00,  8.15400e-02, -4.33200e-02, -3.71100e-03,  3.63000e-03,  3.13100e-04, -5.90200e-04],
                           [-3.89100e+00,  1.16100e-01,  1.50100e-01,  3.70300e-02, -4.74000e-03, -4.75600e-03, -8.00700e-04,  6.50300e-04],
                           [-2.17200e+00, -2.84200e-01,  1.28700e-02,  3.09400e-02,  4.84200e-03, -2.86100e-03, -1.26000e-03,  2.79200e-04],
                           [-8.98900e-01, -1.25900e-01, -2.21900e-02,  2.99900e-03, -1.18100e-03, -3.82100e-04,  4.71600e-04,  9.68800e-05],
                           [-2.78000e-01,  4.88300e-02,  3.81900e-03, -2.93300e-03, -4.82800e-03, -1.34100e-03,  5.67400e-04,  2.86000e-04],
                           [-7.70700e-02,  1.12300e-01,  2.75800e-02,  3.49900e-04, -2.46500e-03, -1.33700e-03, -2.93500e-04,  7.42300e-05],
                           [-6.20500e-02,  8.22800e-02,  3.88600e-02,  2.85600e-03, -1.52900e-03, -4.22800e-04, -2.45800e-04, -1.10200e-04],
                           [-7.81800e-02,  1.63000e-02,  3.91300e-02,  6.87600e-03, -2.80200e-03, -7.85200e-04,  2.95200e-04,  1.29900e-04],
                           [-7.68600e-02, -3.40500e-02,  2.55400e-02,  1.29500e-02, -2.15700e-03, -1.99600e-03,  3.04200e-04,  4.12100e-04]])

# Reaction 7
chebyshev_reaction('gQOOHg (+ M) <=> gQOOH[O] (+ M)',
                   Tmin=180.0, Tmax=1500.0,
                   Pmin=(0.01, 'atm'), Pmax=(98.692, 'atm'),
                   coeffs=[[-8.13400e+00,  3.05900e-01, -2.89800e-01, -3.12000e-02,  1.52600e-02,  4.97400e-03, -1.31000e-03, -9.81200e-04],
                           [ 3.19700e+00,  1.65300e+00,  9.74300e-02, -2.83200e-02, -8.99400e-03,  2.92200e-03,  9.56700e-04, -3.66800e-04],
                           [-2.64200e+00,  8.02200e-02,  7.71000e-02,  4.99400e-02,  1.64600e-03, -7.33400e-03, -1.38500e-03,  1.04200e-03],
                           [-1.76500e+00, -1.48900e-02, -1.44700e-02,  5.33800e-03,  1.03200e-02, -1.07300e-03, -1.75300e-03,  4.63300e-05],
                           [-9.31700e-01,  7.50300e-02,  3.76400e-02, -1.97800e-02, -4.76700e-03,  1.81200e-03,  4.62300e-04, -1.77300e-04],
                           [-4.61900e-01,  3.94600e-02,  8.15700e-02,  1.09300e-05, -1.06000e-02, -1.46400e-03,  7.36400e-04,  2.38500e-04],
                           [-2.39800e-01, -2.75700e-02,  5.51500e-02,  1.99900e-02, -4.01000e-03, -3.04700e-03, -1.17300e-04,  3.08800e-04],
                           [-1.34300e-01, -6.33300e-02,  1.00200e-02,  1.66000e-02,  2.76100e-03, -1.55700e-03, -3.61200e-04,  1.68600e-04],
                           [-7.02700e-02, -5.53100e-02, -1.14300e-02,  2.58500e-03,  3.19500e-03,  2.75900e-04, -3.24100e-06,  1.05600e-04],
                           [-3.23100e-02, -2.04600e-02, -8.21800e-03, -4.18800e-03, -3.28900e-04,  7.63900e-04,  3.11700e-04,  6.72800e-05]])

# Reaction 8
chebyshev_reaction('gQOOHb (+ M) <=> gQOOH[O] (+ M)',
                   Tmin=180.0, Tmax=1500.0,
                   Pmin=(0.01, 'atm'), Pmax=(98.692, 'atm'),
                   coeffs=[[-1.26300e+01,  1.63400e+00, -3.33600e-01, -8.28200e-02,  1.27200e-02,  9.21100e-03, -7.06400e-04, -1.20800e-03],
                           [ 3.60900e+00,  1.63800e+00,  3.16200e-01,  1.28500e-02, -2.60900e-02, -5.22700e-03,  1.71700e-03,  8.55300e-04],
                           [-3.15800e+00, -5.41200e-01,  7.79500e-02,  1.07300e-01,  1.09100e-02, -9.05500e-03, -3.14600e-03,  2.73800e-04],
                           [-1.77100e+00, -4.07200e-01, -9.52100e-02,  1.98900e-02,  1.62900e-02,  1.33900e-03, -1.82000e-03, -3.69500e-04],
                           [-7.69100e-01,  1.30900e-02, -5.59100e-02, -2.07300e-02, -9.54700e-04,  8.87100e-04,  5.96900e-04,  1.91500e-04],
                           [-3.05400e-01,  1.90100e-01,  2.23900e-02, -1.14100e-02, -7.45800e-03, -1.91600e-03,  4.53500e-04,  3.56200e-04],
                           [-1.40400e-01,  1.59500e-01,  5.40700e-02,  5.70000e-03, -3.46200e-03, -2.09800e-03, -4.21800e-04,  1.34700e-04],
                           [-1.03600e-01,  5.73900e-02,  4.53200e-02,  1.06100e-02,  1.33900e-03, -6.17300e-04, -5.25800e-04, -1.02900e-04],
                           [-8.52400e-02, -1.88600e-02,  2.27900e-02,  8.11000e-03,  1.80500e-03,  4.31800e-04, -3.32800e-05, -8.81400e-05],
                           [-6.72800e-02, -4.68700e-02,  7.40500e-03,  4.88400e-03,  3.18100e-04,  1.77500e-04,  2.61400e-04,  8.91500e-05]])

# Reaction 9
chebyshev_reaction('O2 + gR (+ M) <=> gQOOH[O] (+ M)',
                   Tmin=180.0, Tmax=1500.0,
                   Pmin=(0.01, 'atm'), Pmax=(98.692, 'atm'),
                   coeffs=[[-1.08200e+00,  1.02600e+00, -3.23100e-01, -1.23600e-01,  1.97800e-03,  2.47200e-02,  3.56100e-03, -5.52100e-03],
                           [-2.42600e+00,  1.37200e-01,  1.02700e-01,  1.27400e-01, -5.17900e-03, -2.54900e-02, -4.24900e-03,  6.26300e-03],
                           [-1.50900e+00,  2.14500e-03, -1.36500e-01,  3.85100e-02,  1.79200e-02, -9.38600e-04, -2.27400e-03, -9.42100e-04],
                           [-7.65800e-01,  1.90200e-01, -1.13100e-01, -2.68200e-02,  7.68400e-03,  2.68300e-03,  1.94900e-04, -4.87000e-04],
                           [-3.51800e-01,  3.16900e-01,  7.44300e-03, -3.46200e-02, -5.67700e-03,  2.18300e-04,  8.44400e-04,  3.13900e-04],
                           [-1.80300e-01,  2.58400e-01,  7.94600e-02, -1.32500e-02, -6.92900e-03, -1.30800e-03, -6.99300e-05,  2.58700e-04],
                           [-1.33700e-01,  1.25000e-01,  8.24000e-02,  5.06600e-03, -3.59300e-03, -9.85200e-04, -3.43100e-04,  5.33600e-05],
                           [-1.18100e-01,  1.02700e-02,  5.17500e-02,  9.92500e-03, -1.26300e-03,  2.34700e-06,  1.88600e-05, -5.74900e-05],
                           [-8.87100e-02, -4.82300e-02,  2.29400e-02,  7.19900e-03, -1.12200e-03,  1.33600e-04,  4.22400e-04,  2.93600e-05],
                           [-5.96900e-02, -5.03200e-02,  7.32400e-03,  6.46400e-03, -2.21100e-03, -7.87800e-04,  5.41300e-04,  2.38000e-04]])
#  gRO2(+M) <=> gQOOHa(+M)                             1.000e+00 0.000     0.000
#      TCHEB/ 180.000   1500.000 /
#      PCHEB/ 0.010     98.692   /
#      CHEB/ 10 8/
#      CHEB/ -5.250e+00   7.844e-01    -3.047e-02   -6.031e-04   -4.383e-04  /
#      CHEB/ -1.810e-04   -7.732e-05   -5.260e-05   6.536e+00    1.267e+00   /
#      CHEB/ -7.300e-03   -6.210e-03   -1.175e-03   -3.309e-04   -7.085e-05  /
#      CHEB/ -8.427e-05   -2.573e+00   6.222e-01    7.510e-02    -5.976e-03  /
#      CHEB/ -3.601e-03   -1.330e-04   8.020e-05    -1.385e-05   -1.717e+00  /
#      CHEB/ 9.106e-02    8.577e-02    6.815e-03    -5.255e-03   -5.970e-04  /
#      CHEB/ 2.502e-04    7.470e-05    -8.840e-01   -1.120e-01   3.365e-02   /
#      CHEB/ 1.534e-02    -2.696e-03   -1.435e-03   1.647e-04    1.480e-04   /
#      CHEB/ -3.638e-01   -7.255e-02   -9.511e-03   9.073e-03    8.394e-04   /
#      CHEB/ -1.311e-03   -1.866e-04   1.270e-04    -1.632e-01   2.433e-02   /
#      CHEB/ -6.319e-03   -1.849e-03   5.654e-04    -4.378e-04   -3.304e-04  /
#      CHEB/ 2.499e-05    -5.359e-02   6.365e-02    2.362e-02    -3.517e-03  /
#      CHEB/ -2.700e-03   -3.495e-04   -6.267e-05   1.529e-05    -8.244e-02  /
#      CHEB/ 3.500e-02    4.248e-02    5.501e-03    -4.464e-03   -1.379e-03  /
#      CHEB/ 2.109e-04    1.786e-04    -6.219e-02   -1.861e-02   3.408e-02   /
#      CHEB/ 1.516e-02    -2.222e-03   -2.217e-03   1.214e-04    3.328e-04   /
#  gQOOH[O](+M) <=> gQOOHa(+M)                         1.000e+00 0.000     0.000
#      TCHEB/ 180.000   1500.000 /
#      PCHEB/ 0.010     98.692   /
#      CHEB/ 10 8/
#      CHEB/ -9.746e-01   2.581e-01    -2.661e-01   -9.977e-03   9.138e-03   /
#      CHEB/ 2.333e-03    -6.340e-04   -5.407e-04   -3.293e+00   2.026e+00   /
#      CHEB/ 8.154e-02    -4.332e-02   -3.711e-03   3.630e-03    3.131e-04   /
#      CHEB/ -5.902e-04   -3.903e+00   1.161e-01    1.501e-01    3.703e-02   /
#      CHEB/ -4.740e-03   -4.756e-03   -8.007e-04   6.503e-04    -2.223e+00  /
#      CHEB/ -2.842e-01   1.287e-02    3.094e-02    4.842e-03    -2.861e-03  /
#      CHEB/ -1.260e-03   2.792e-04    -9.241e-01   -1.259e-01   -2.219e-02  /
#      CHEB/ 2.999e-03    -1.181e-03   -3.821e-04   4.716e-04    9.688e-05   /
#      CHEB/ -2.872e-01   4.883e-02    3.819e-03    -2.933e-03   -4.828e-03  /
#      CHEB/ -1.341e-03   5.674e-04    2.860e-04    -8.038e-02   1.123e-01   /
#      CHEB/ 2.758e-02    3.499e-04    -2.465e-03   -1.337e-03   -2.935e-04  /
#      CHEB/ 7.423e-05    -6.334e-02   8.228e-02    3.886e-02    2.856e-03   /
#      CHEB/ -1.529e-03   -4.228e-04   -2.458e-04   -1.102e-04   -7.864e-02  /
#      CHEB/ 1.630e-02    3.913e-02    6.876e-03    -2.802e-03   -7.852e-04  /