units(length='cm', time='s', quantity='mol', act_energy='kcal/mol')

ideal_gas(name='gas',
          elements="H D T C Ci O Oi N Ne Ar He Si S F Cl Br I X",
          species="""aOOHbalkene      OH               ibutanal
                     aR               performic_acid   disub_c4ether
                     aQOOHb           H                aadduct
                     trisub_epoxy     ibutenol         aQOOH[O]
                     ipropyl          aRO2             O2
                     formic_acid      propene          aQOOHg
                     ibut_peroxyacid  HO2              CH3""",
          reactions='all',
          initial_state=state(temperature=300.0, pressure=OneAtm))

#-------------------------------------------------------------------------------
# Element data
#-------------------------------------------------------------------------------

element(symbol='Ci', atomic_mass=13.003)
element(symbol='D', atomic_mass=2.014)
element(symbol='Oi', atomic_mass=18.0)
element(symbol='T', atomic_mass=3.016)
element(symbol='X', atomic_mass=195.083)
#-------------------------------------------------------------------------------
# Species data
#-------------------------------------------------------------------------------

species(name='aOOHbalkene',
        atoms='C:3 H:6 O:3',
        thermo=(NASA([10.00, 497.41],
                     [ 3.76691735E+00,  1.51417956E-02,  1.85499431E-04,
                      -4.61303214E-07,  3.27678941E-10, -3.19938588E+04,
                       1.09903968E+01]),
                NASA([497.41, 3000.00],
                     [ 6.20882781E+00,  4.08866173E-02, -2.89934946E-05,
                       9.60428979E-09, -1.19355432E-12, -3.27981881E+04,
                      -4.72842811E+00])))

species(name='OH',
        atoms='H:1 O:1',
        thermo=(NASA([10.00, 984.14],
                     [ 3.49686242E+00,  1.83973160E-04, -9.97634499E-07,
                       1.56942783E-09, -6.10128175E-13,  3.41673934E+03,
                       1.48093120E+00]),
                NASA([984.14, 3000.00],
                     [ 3.45221464E+00, -2.95124034E-04,  7.39418622E-07,
                      -2.89309866E-10,  3.53041498E-14,  3.45751599E+03,
                       1.85813897E+00])))

species(name='ibutanal',
        atoms='C:4 H:8 O:1',
        thermo=(NASA([10.00, 683.88],
                     [ 3.57157346E+00,  3.36936906E-02, -1.78475021E-05,
                       1.31946716E-08, -7.58008388E-12, -2.85951415E+04,
                       1.05595084E+01]),
                NASA([683.88, 3000.00],
                     [ 1.29043622E+00,  4.14804229E-02, -2.27411206E-05,
                       6.08619500E-09, -6.38995128E-13, -2.81532223E+04,
                       2.16477430E+01])))

species(name='aR',
        atoms='C:4 H:9 O:1',
        thermo=(NASA([10.00, 455.22],
                     [ 3.59625500E+00,  3.38947981E-02,  7.37257079E-06,
                      -3.99275335E-08,  2.49019944E-11, -1.34323391E+04,
                       1.18269265E+01]),
                NASA([455.22, 3000.00],
                     [ 2.49586309E+00,  4.35639890E-02, -2.44887770E-05,
                       6.73363769E-09, -7.23862433E-13, -1.33321560E+04,
                       1.62696907E+01])))

species(name='performic_acid',
        atoms='C:1 H:2 O:3',
        thermo=(NASA([10.00, 590.95],
                     [ 3.92633851E+00,  4.24517168E-03,  6.71106764E-05,
                      -1.36545385E-07,  8.03337864E-11, -3.63028176E+04,
                       8.06485813E+00]),
                NASA([590.95, 3000.00],
                     [ 4.39992934E+00,  1.85411415E-02, -1.36005501E-05,
                       4.62292431E-09, -5.88463603E-13, -3.66643888E+04,
                       3.44353230E+00])))

species(name='disub_c4ether',
        atoms='C:4 H:8 O:2',
        thermo=(NASA([10.00, 413.50],
                     [ 3.78241323E+00,  1.89501763E-02,  8.65302396E-05,
                      -1.80580575E-07,  1.13656264E-10, -4.08157295E+04,
                       1.09982450E+01]),
                NASA([413.50, 3000.00],
                     [ 4.29420885E-01,  5.13851903E-02, -3.11292293E-05,
                       9.11498284E-09, -1.03192718E-12, -4.05384352E+04,
                       2.42134976E+01])))

species(name='aQOOHb',
        atoms='C:4 H:9 O:3',
        thermo=(NASA([10.00, 412.78],
                     [ 3.15498836E+00,  8.55068303E-02, -2.35307993E-04,
                       4.71983261E-07, -3.62709267E-10, -2.80488863E+04,
                       1.52522123E+01]),
                NASA([412.78, 3000.00],
                     [ 4.18099845E+00,  5.26168288E-02, -3.23998410E-05,
                       9.59389339E-09, -1.09464519E-12, -2.79380913E+04,
                       1.35782328E+01])))

species(name='H',
        atoms='H:1',
        thermo=(NASA([10.00, 794.01],
                     [ 2.50000000E+00,  1.99051163E-15, -1.19089508E-17,
                       2.10805655E-20, -1.11017699E-23,  2.54725594E+04,
                      -4.61279342E-01]),
                NASA([794.01, 3000.00],
                     [ 2.50000000E+00,  1.52667235E-14, -1.58445285E-17,
                       6.63088600E-21, -9.62111674E-25,  2.54725594E+04,
                      -4.61279342E-01])))

species(name='aadduct',
        atoms='C:4 H:9 O:3',
        thermo=(NASA([10.00, 449.84],
                     [ 3.06901904E+00,  9.20724491E-02, -2.68085092E-04,
                       5.15249897E-07, -3.68046586E-10, -3.22671613E+04,
                       1.46591735E+01]),
                NASA([449.84, 3000.00],
                     [ 4.11210745E+00,  5.16955724E-02, -2.97401041E-05,
                       8.32758939E-09, -9.08861448E-13, -3.20463203E+04,
                       1.39578825E+01])))

species(name='trisub_epoxy',
        atoms='C:4 H:8 O:2',
        thermo=(NASA([10.00, 209.19],
                     [ 3.75295042E+00,  2.37546930E-02,  1.26610110E-04,
                      -4.78364365E-07,  5.79468168E-10, -3.94725317E+04,
                       1.12739684E+01]),
                NASA([209.19, 3000.00],
                     [ 2.64185254E+00,  4.50006531E-02, -2.57361066E-05,
                       7.15266054E-09, -7.72980731E-13, -3.94260461E+04,
                       1.48960343E+01])))

species(name='ibutenol',
        atoms='C:4 H:8 O:1',
        thermo=(NASA([10.00, 135.97],
                     [ 3.95714996E+00,  5.72646980E-03,  4.63611760E-04,
                      -3.04137514E-06,  6.85019471E-09, -2.16956925E+04,
                       8.21931848E+00]),
                NASA([135.97, 3000.00],
                     [ 3.32467612E+00,  3.69033556E-02, -1.89960416E-05,
                       4.73417677E-09, -4.59705291E-13, -2.16901138E+04,
                       9.58133237E+00])))

species(name='aQOOH[O]',
        atoms='C:4 H:9 O:3',
        thermo=(NASA([10.00, 488.36],
                     [ 3.54559533E+00,  3.89536133E-02,  8.47689703E-05,
                      -2.45147486E-07,  1.76157259E-10, -2.30460776E+04,
                       1.34685910E+01]),
                NASA([488.36, 3000.00],
                     [ 3.94214913E+00,  5.71928314E-02, -3.72516212E-05,
                       1.15209013E-08, -1.35808341E-12, -2.33410385E+04,
                       9.21628964E+00])))

species(name='ipropyl',
        atoms='C:3 H:7',
        thermo=(NASA([10.00, 421.76],
                     [ 3.73943775E+00,  3.10070157E-02, -1.51196908E-04,
                       4.35367329E-07, -3.85565052E-10,  9.49213457E+03,
                       7.79448918E+00]),
                NASA([421.76, 3000.00],
                     [-4.74526725E-01,  3.20862468E-02, -1.67340747E-05,
                       4.21365136E-09, -4.13155573E-13,  1.01934458E+04,
                       2.85865912E+01])))

species(name='aRO2',
        atoms='C:4 H:9 O:3',
        thermo=(NASA([10.00, 670.36],
                     [ 3.45405325E+00,  4.74751311E-02,  9.77507759E-06,
                      -6.31019603E-08,  3.75500067E-11, -3.00695015E+04,
                       1.39284976E+01]),
                NASA([670.36, 3000.00],
                     [ 5.04137652E+00,  5.19952978E-02, -3.16472789E-05,
                       9.22798587E-09, -1.03598915E-12, -3.05966941E+04,
                       4.56056770E+00])))

species(name='O2',
        atoms='O:2',
        thermo=(NASA([10.00, 605.96],
                     [ 3.50743498E+00, -4.43860349E-04,  1.45938058E-06,
                       1.61509333E-09, -2.32050052E-12, -9.24756224E+02,
                       4.72183634E+00]),
                NASA([605.96, 3000.00],
                     [ 2.87462882E+00,  2.17840991E-03, -1.18262921E-06,
                       2.86910493E-10, -2.53297146E-14, -8.19517838E+02,
                       7.69331810E+00])))

species(name='formic_acid',
        atoms='C:1 H:2 O:2',
        thermo=(NASA([10.00, 741.38],
                     [ 4.06855785E+00, -4.74562133E-03,  4.71797900E-05,
                      -6.07490052E-08,  2.51286794E-11, -4.66880837E+04,
                       6.53681035E+00]),
                NASA([741.38, 3000.00],
                     [ 1.13645847E+00,  1.74953124E-02, -1.08112403E-05,
                       3.08075326E-09, -3.34892658E-13, -4.64297918E+04,
                       1.86149484E+01])))

species(name='propene',
        atoms='C:3 H:6',
        thermo=(NASA([10.00, 519.53],
                     [ 3.98723879E+00,  4.72040503E-04,  6.51776229E-05,
                      -9.89891002E-08,  4.91141123E-11,  2.21837333E+03,
                       6.98071210E+00]),
                NASA([519.53, 3000.00],
                     [ 3.79893331E-01,  2.82457690E-02, -1.50108430E-05,
                       3.90894069E-09, -4.00521928E-13,  2.59320068E+03,
                       2.20218922E+01])))

species(name='aQOOHg',
        atoms='C:4 H:9 O:3',
        thermo=(NASA([10.00, 455.48],
                     [ 3.62522127E+00,  2.83222320E-02,  2.08527447E-04,
                      -5.67427418E-07,  4.35169138E-10, -2.62601227E+04,
                       1.26617758E+01]),
                NASA([455.48, 3000.00],
                     [ 5.13914202E+00,  5.96270859E-02, -4.14435328E-05,
                       1.34202375E-08, -1.63474553E-12, -2.68606791E+04,
                       1.46991116E+00])))

species(name='ibut_peroxyacid',
        atoms='C:4 H:8 O:3',
        thermo=(NASA([10.00, 1386.21],
                     [ 3.50995385E+00,  4.78670384E-02, -2.40781384E-05,
                       3.71046938E-09,  3.85442115E-13, -4.94141071E+04,
                       1.22017268E+01]),
                NASA([1386.21, 3000.00],
                     [ 1.24543146E+01,  3.02396862E-02, -1.38577031E-05,
                       3.05328904E-09, -2.63982457E-13, -5.26799904E+04,
                      -3.67061828E+01])))

species(name='HO2',
        atoms='H:1 O:2',
        thermo=(NASA([10.00, 891.11],
                     [ 4.02887004E+00, -1.75769289E-03,  1.08726004E-05,
                      -1.13812972E-08,  3.90113097E-12,  4.95165001E+02,
                       4.69302008E+00]),
                NASA([891.11, 3000.00],
                     [ 3.06571044E+00,  4.28505005E-03, -2.19325920E-06,
                       5.58882699E-10, -5.61246669E-14,  5.98557610E+02,
                       8.84564156E+00])))

species(name='CH3',
        atoms='C:1 H:3',
        thermo=(NASA([10.00, 616.77],
                     [ 3.98929952E+00,  5.45150461E-04,  9.01320092E-06,
                      -1.08320497E-08,  4.38985879E-12,  1.65859883E+04,
                       2.22446886E-01]),
                NASA([616.77, 3000.00],
                     [ 3.35928237E+00,  4.63117126E-03, -9.24365433E-07,
                      -9.02514624E-11,  3.56905106E-14,  1.66637014E+04,
                       2.95743732E+00])))

#-------------------------------------------------------------------------------
# Reaction data
#-------------------------------------------------------------------------------

# Reaction 1
chebyshev_reaction('aQOOH[O] (+ M) <=> aQOOHb (+ M)',
                   Tmin=180.0, Tmax=1500.0,
                   Pmin=(0.01, 'atm'), Pmax=(98.692, 'atm'),
                   coeffs=[[-1.23100e+01,  8.27800e+00,  2.36500e-01, -4.22800e-01, -9.53600e-02,  5.73200e-02,  2.25500e-02, -1.00600e-02],
                           [-4.25400e+00, -3.78400e+00,  1.59700e-01,  4.29000e-01,  2.86600e-02, -7.85400e-02, -1.50600e-02,  1.78000e-02],
                           [-3.33400e+00, -2.91200e-01, -2.52600e-01,  2.88800e-02,  3.16900e-02, -6.08300e-04, -6.28200e-03, -3.85500e-03],
                           [-1.38500e+00,  5.99100e-02, -4.86900e-03, -2.64700e-02,  5.54200e-03,  5.20500e-03, -4.21900e-03, -1.27100e-03],
                           [-5.43000e-01,  5.95800e-02,  8.66600e-03,  4.39700e-03,  6.80300e-03,  3.68400e-04,  3.47400e-04, -9.11800e-04],
                           [-2.32600e-01,  1.88600e-02, -1.25300e-02,  1.83200e-03, -1.17500e-03,  3.22300e-03,  8.51400e-04, -5.31100e-04],
                           [-1.42300e-01, -1.08900e-03,  7.07100e-03, -7.61900e-03, -4.48900e-04, -6.12900e-04,  1.27600e-04,  5.91700e-04],
                           [-5.12500e-02, -5.34700e-03, -3.02600e-03,  1.49800e-03,  8.45700e-04, -1.97300e-04, -2.95700e-04, -2.25700e-04],
                           [-3.10400e-02,  1.66000e-02,  2.40400e-04, -1.78900e-03, -2.32400e-03,  8.63200e-04,  7.91200e-04, -5.75300e-05],
                           [ 2.57100e-02, -2.15100e-02, -3.67900e-03,  2.01500e-03,  2.59800e-03, -1.86900e-04, -7.68100e-04,  9.53400e-05]])

# Reaction 2
chebyshev_reaction('aQOOHg (+ M) <=> aQOOHb (+ M)',
                   Tmin=180.0, Tmax=1500.0,
                   Pmin=(0.01, 'atm'), Pmax=(98.692, 'atm'),
                   coeffs=[[-8.30600e+00,  4.30900e+00, -2.10300e-01, -9.14400e-03,  3.90400e-03, -1.07900e-02,  2.19600e-04,  2.16000e-03],
                           [-7.92600e+00, -4.01300e-01,  3.79100e-01,  1.09100e-01,  1.85800e-02,  5.21100e-03, -6.06200e-03, -2.99400e-03],
                           [-3.80300e+00, -4.73700e-01, -3.03400e-01, -6.24000e-02,  1.43400e-02,  1.37700e-02,  4.24900e-03, -4.21800e-04],
                           [-1.39300e+00,  2.77000e-02, -7.67300e-02, -6.43800e-02, -2.44700e-02, -3.64300e-03,  1.63000e-03,  1.71200e-03],
                           [-4.97600e-01,  1.02100e-01,  2.38900e-02,  3.15500e-03, -1.54600e-03, -4.17900e-03, -2.90900e-03, -5.93700e-04],
                           [-2.54100e-01,  1.51800e-02,  1.08800e-02,  4.14900e-03,  3.33400e-03,  2.47300e-03,  2.18100e-05, -7.94700e-04],
                           [-1.14300e-01, -1.41000e-02, -5.83300e-03, -2.22500e-03, -4.09700e-04,  6.09500e-04,  6.36200e-04,  1.10000e-04],
                           [-3.66500e-02, -3.39300e-03,  3.01000e-03,  6.67800e-04, -6.85000e-04, -8.02000e-05, -2.97700e-06, -9.53500e-05],
                           [ 3.90500e-03, -2.21600e-03,  5.66700e-03,  2.80800e-03,  6.68400e-05,  1.32800e-05,  1.41800e-04, -2.44300e-05],
                           [-1.87000e-02,  4.15500e-03, -2.27500e-03, -1.97900e-03,  1.82200e-04,  4.78200e-04,  1.74300e-04,  1.19000e-04]])

# Reaction 3
chebyshev_reaction('aRO2 (+ M) <=> aQOOHb (+ M)',
                   Tmin=180.0, Tmax=1500.0,
                   Pmin=(0.01, 'atm'), Pmax=(98.692, 'atm'),
                   coeffs=[[-8.87200e+00,  2.24100e+00,  2.62700e-01,  1.09700e-01,  4.46500e-02,  1.51700e-02, -2.01600e-03, -5.78200e-03],
                           [-5.25500e+00,  7.27600e-01, -1.65200e-01, -1.56800e-01, -5.65100e-02, -1.61800e-02,  2.93900e-03,  9.29200e-03],
                           [-3.73000e+00,  3.01300e-01, -6.19700e-02, -1.50300e-02,  1.45300e-02,  3.86600e-03, -2.45200e-03, -3.94100e-03],
                           [-1.56800e+00,  2.23700e-01, -9.04000e-03, -1.68800e-03,  1.19900e-03, -1.82100e-03,  2.32600e-04,  8.19500e-04],
                           [-6.10600e-01,  1.00600e-01, -2.24500e-03,  8.97200e-03,  1.67300e-03, -2.40000e-03, -1.96100e-04,  4.44900e-04],
                           [-3.30600e-01,  2.78600e-02, -1.01400e-03,  2.30400e-03,  1.00200e-04, -1.59700e-03, -1.40700e-04, -2.14400e-04],
                           [-2.44300e-01,  1.34400e-02, -6.24800e-03,  1.77400e-03, -5.44100e-04,  3.14600e-04,  5.96300e-04, -6.48200e-05],
                           [-4.57200e-03, -4.24200e-03, -2.08000e-04,  1.71400e-03, -6.26600e-04, -2.40600e-04,  7.28500e-05, -6.44700e-05],
                           [ 8.82700e-02, -3.18800e-03, -7.34300e-04,  3.57500e-03,  2.72900e-04,  2.45500e-04,  5.87800e-05, -5.67700e-05],
                           [-1.23300e-02,  1.50400e-03, -4.70700e-03, -3.08500e-03, -9.59000e-04,  1.74200e-04,  1.82000e-04,  1.66400e-05]])

# Reaction 4
chebyshev_reaction('aadduct (+ M) <=> aQOOHb (+ M)',
                   Tmin=180.0, Tmax=1500.0,
                   Pmin=(0.01, 'atm'), Pmax=(98.692, 'atm'),
                   coeffs=[[-7.69300e+00,  1.56000e+00,  3.00600e-02,  1.00400e-02, -4.44300e-03,  1.47300e-03,  9.53200e-05,  5.59100e-05],
                           [-2.81300e+00,  5.64900e-01,  1.09000e-01,  2.92900e-02,  1.07400e-02,  1.31100e-03, -9.89500e-04, -2.61100e-04],
                           [-3.67100e+00, -6.94800e-02, -9.46500e-02, -2.69700e-02,  2.05300e-03,  3.24700e-03,  7.87400e-04,  1.63800e-05],
                           [-1.49900e+00,  3.31300e-02, -4.36300e-02, -2.36300e-02, -6.92100e-03, -1.57200e-03, -2.74300e-04,  1.53100e-04],
                           [-6.15200e-01,  7.58100e-02, -5.40300e-03, -4.26800e-03,  1.47200e-04, -2.12200e-04, -5.82000e-04, -2.83500e-04],
                           [-2.99600e-01,  5.22700e-02,  3.24600e-03, -6.20300e-03,  5.35500e-04,  6.34600e-04,  3.23900e-04,  2.35700e-05],
                           [-1.29300e-01,  4.02200e-02,  9.79100e-04, -2.19900e-03, -1.24700e-03, -2.48100e-04, -3.31200e-05,  7.17100e-05],
                           [-7.22900e-04,  1.07800e-02,  4.33100e-03,  2.36300e-04,  5.37100e-05, -5.45200e-05, -1.47900e-04, -8.45800e-05],
                           [ 2.25100e-02, -1.48100e-04, -9.24400e-04,  9.85700e-04, -2.19700e-05,  2.15200e-04,  3.53800e-05,  2.61800e-05],
                           [-2.56700e-02,  6.45000e-04, -2.32600e-03, -1.82300e-03, -9.63200e-05,  1.22000e-04,  1.08800e-04,  2.73000e-05]])

# Reaction 5
chebyshev_reaction('O2 + aR (+ M) <=> aQOOHb (+ M)',
                   Tmin=180.0, Tmax=1500.0,
                   Pmin=(0.01, 'atm'), Pmax=(98.692, 'atm'),
                   coeffs=[[-1.29700e+01,  1.31200e+01,  1.66600e+00, -7.37400e-01,  3.23900e-02,  8.05100e-02, -6.30300e-02, -8.13300e-02],
                           [ 1.43800e+00, -9.11500e+00, -6.24100e-02,  1.30300e+00, -2.27300e-01, -1.73500e-01,  9.73700e-02,  1.03400e-01],
                           [-1.12900e+00, -4.98800e-01, -8.38300e-01, -2.25200e-01,  2.90200e-01,  2.83900e-02, -7.08100e-02,  2.73600e-03],
                           [-5.54900e-01,  2.64800e-01, -1.16200e-01, -2.54100e-01,  2.36800e-03,  1.18100e-01,  7.89500e-05, -5.30400e-02],
                           [-2.69600e-01,  9.90800e-02,  7.07400e-02, -1.83100e-03, -9.31500e-02, -1.79300e-03,  5.60100e-02, -2.81900e-04],
                           [-1.66800e-01, -1.07500e-02, -1.21500e-03,  4.86100e-02, -1.07900e-02, -4.60900e-02, -6.37400e-04,  3.31200e-02],
                           [-4.23200e-02, -4.46400e-02,  7.20100e-03,  1.26500e-03,  1.45000e-02, -6.77200e-03, -2.29300e-02,  3.89700e-03],
                           [ 3.64200e-02, -2.13100e-02,  1.22000e-02, -2.06100e-03, -4.45500e-03,  8.95400e-03,  2.92700e-03, -1.55400e-02],
                           [ 6.04000e-02, -1.26200e-02,  7.82400e-03, -3.65800e-03, -3.71400e-03,  5.09800e-03,  4.93700e-03, -9.69500e-04],
                           [-4.90300e-02,  3.21200e-02, -2.08100e-03, -1.40300e-04,  6.76900e-04, -4.84700e-03, -4.07100e-04,  4.88600e-03]])
#  aQOOHb(+M) <=> aQOOH[O](+M)                         1.000e+00 0.000     0.000
#      TCHEB/ 180.000   1500.000 /
#      PCHEB/ 0.010     98.692   /
#      CHEB/ 10 8/
#      CHEB/ -2.056e+01   8.278e+00    2.365e-01    -4.228e-01   -9.536e-02  /
#      CHEB/ 5.732e-02    2.255e-02    -1.006e-02   8.789e-01    -3.784e+00  /
#      CHEB/ 1.597e-01    4.290e-01    2.866e-02    -7.854e-02   -1.506e-02  /
#      CHEB/ 1.780e-02    -3.256e+00   -2.912e-01   -2.526e-01   2.888e-02   /
#      CHEB/ 3.169e-02    -6.083e-04   -6.282e-03   -3.855e-03   -1.339e+00  /
#      CHEB/ 5.991e-02    -4.869e-03   -2.647e-02   5.542e-03    5.205e-03   /
#      CHEB/ -4.219e-03   -1.271e-03   -5.276e-01   5.958e-02    8.666e-03   /
#      CHEB/ 4.397e-03    6.803e-03    3.684e-04    3.474e-04    -9.118e-04  /
#      CHEB/ -2.278e-01   1.886e-02    -1.253e-02   1.832e-03    -1.175e-03  /
#      CHEB/ 3.223e-03    8.514e-04    -5.311e-04   -1.405e-01   -1.089e-03  /
#      CHEB/ 7.071e-03    -7.619e-03   -4.489e-04   -6.129e-04   1.276e-04   /
#      CHEB/ 5.917e-04    -5.053e-02   -5.347e-03   -3.026e-03   1.498e-03   /
#      CHEB/ 8.457e-04    -1.973e-04   -2.957e-04   -2.257e-04   -3.085e-02  /
#      CHEB/ 1.660e-02    2.404e-04    -1.789e-03   -2.324e-03   8.632e-04   /
#      CHEB/ 7.912e-04    -5.753e-05   2.571e-02    -2.151e-02   -3.679e-03  /
#      CHEB/ 2.015e-03    2.598e-03    -1.869e-04   -7.681e-04   9.534e-05   /

# Reaction 6
chebyshev_reaction('aQOOHg (+ M) <=> aQOOH[O] (+ M)',
                   Tmin=180.0, Tmax=1500.0,
                   Pmin=(0.01, 'atm'), Pmax=(98.692, 'atm'),
                   coeffs=[[-1.23000e+01,  6.19000e+00, -2.87800e-01, -3.15400e-01,  8.89300e-02,  4.74100e-02, -2.42300e-02, -6.42100e-03],
                           [-2.32600e+00, -2.47800e+00,  2.73200e-01,  2.57000e-01, -1.24500e-01, -2.96400e-02,  3.49500e-02,  2.23200e-03],
                           [-3.95700e+00, -2.81200e-01, -1.74600e-01,  1.47800e-02,  2.13200e-02, -1.27900e-02, -3.09700e-03,  4.15700e-03],
                           [-1.73900e+00,  1.24100e-01, -4.09600e-02, -2.46400e-02,  3.67000e-03, -2.76800e-03, -3.36500e-03,  1.38400e-03],
                           [-5.73500e-01,  7.91000e-02,  3.15500e-02,  2.06800e-03,  2.06400e-03,  6.08500e-04, -2.32300e-03, -9.63800e-04],
                           [-1.46900e-01,  2.72900e-02,  4.78800e-03,  1.18900e-03,  3.44100e-03,  2.73900e-03,  1.22700e-04, -6.74100e-04],
                           [-1.23800e-01,  1.82000e-03,  2.98400e-04, -3.50700e-03, -1.79000e-03,  6.69900e-04,  8.56500e-04,  1.98400e-04],
                           [-1.34600e-01, -9.68200e-03, -2.70000e-03,  2.34100e-04,  1.46200e-04, -1.50800e-04, -3.41400e-04, -1.71100e-04],
                           [-1.19100e-01,  1.87700e-02,  3.89900e-03, -2.18400e-03, -1.41800e-03,  7.35500e-05,  5.01400e-04,  8.92300e-05],
                           [ 4.54600e-02, -2.22800e-02, -4.57700e-03,  2.98000e-03,  1.52600e-03,  5.59500e-05, -3.48700e-04, -1.59000e-04]])

# Reaction 7
chebyshev_reaction('aRO2 (+ M) <=> aQOOH[O] (+ M)',
                   Tmin=180.0, Tmax=1500.0,
                   Pmin=(0.01, 'atm'), Pmax=(98.692, 'atm'),
                   coeffs=[[-1.83600e+01,  6.44500e+00,  5.05600e-01,  4.34000e-02, -4.66400e-02, -2.91000e-02, -3.41500e-03,  2.70400e-03],
                           [ 4.84700e+00, -2.81800e+00, -4.15500e-01, -4.05300e-02,  3.77100e-02,  3.10200e-02,  5.07500e-03, -2.15500e-03],
                           [-3.62600e+00,  1.23100e-01, -1.71200e-01,  2.66000e-02,  2.73600e-02, -3.16900e-03, -4.13400e-03, -7.51800e-04],
                           [-1.76700e+00,  1.40000e-01,  9.88900e-03, -2.69200e-02, -8.74400e-03,  4.54500e-03,  2.09500e-03, -9.37000e-04],
                           [-6.95500e-01,  1.22900e-01,  4.49500e-02, -3.54100e-02, -8.58700e-03,  2.29000e-03,  2.79600e-04,  2.01500e-04],
                           [-2.23300e-01,  2.05700e-02,  2.35100e-02,  1.67600e-02, -1.33000e-02, -6.62600e-03,  2.53700e-03,  1.35900e-03],
                           [-2.36100e-01, -2.23800e-02,  2.02400e-02,  1.51600e-02,  5.50900e-04, -3.53200e-03, -1.72500e-03,  5.85900e-04],
                           [-1.09400e-01, -2.94300e-02, -1.78100e-02,  5.70800e-03,  1.24000e-02, -4.44100e-05, -2.96500e-03, -3.94500e-04],
                           [-3.36500e-02,  1.39900e-02, -1.13000e-02, -5.06500e-03,  1.30200e-03,  4.09200e-03,  6.87500e-04, -1.25400e-03],
                           [ 5.32700e-02, -2.84100e-02, -3.36200e-03, -5.08500e-03, -1.53400e-04,  2.83400e-03,  8.59700e-04, -5.03200e-04]])

# Reaction 8
chebyshev_reaction('aadduct (+ M) <=> aQOOH[O] (+ M)',
                   Tmin=180.0, Tmax=1500.0,
                   Pmin=(0.01, 'atm'), Pmax=(98.692, 'atm'),
                   coeffs=[[-1.75700e+01,  6.65000e+00,  4.14500e-01, -2.26600e-03, -5.87000e-02, -2.86500e-02, -3.54200e-03,  2.72900e-03],
                           [ 6.36400e+00, -2.33600e+00, -3.12900e-01, -5.38700e-02,  3.09400e-02,  2.82100e-02,  6.52600e-03, -1.86100e-03],
                           [-3.88800e+00, -4.25300e-02, -1.03700e-01,  3.17700e-02,  1.50600e-02, -4.75200e-03, -3.39600e-03,  4.37100e-05],
                           [-1.70800e+00, -1.87500e-01,  2.23200e-02,  6.99200e-03, -8.24800e-03, -5.28200e-05,  1.38800e-03, -3.19800e-04],
                           [-6.56700e-01, -1.56400e-02, -4.05500e-03, -1.39400e-02,  6.11600e-03,  1.10000e-03, -1.79100e-03, -1.60300e-04],
                           [-1.70500e-01,  3.77900e-02, -2.10500e-02,  9.32900e-03, -1.93100e-03, -1.50600e-03,  1.06400e-03,  1.94000e-04],
                           [-1.07400e-01,  1.31900e-02,  2.07600e-02, -2.20100e-03, -1.56900e-03,  1.11000e-03, -2.11000e-04, -1.85200e-04],
                           [-9.07100e-02, -9.14600e-03,  2.33300e-04,  1.22800e-03,  3.73500e-03, -6.93500e-04, -5.52000e-04,  1.70700e-04],
                           [-9.30900e-02,  2.31300e-02, -5.81500e-03,  3.72900e-04, -3.14400e-03,  2.54000e-04,  9.60100e-04, -3.15400e-05],
                           [ 3.95100e-02, -3.29900e-02, -3.84400e-03,  2.85900e-04,  2.88200e-03,  3.77500e-04, -9.65400e-04, -1.31600e-04]])

# Reaction 9
chebyshev_reaction('O2 + aR (+ M) <=> aQOOH[O] (+ M)',
                   Tmin=180.0, Tmax=1500.0,
                   Pmin=(0.01, 'atm'), Pmax=(98.692, 'atm'),
                   coeffs=[[-1.14400e+01,  6.95300e+00,  8.56600e-01, -5.87900e-01, -2.39100e-01,  1.11800e-01,  6.61600e-02, -2.31700e-02],
                           [ 3.57800e+00, -5.67700e+00, -3.92500e-01,  1.03000e+00,  2.23200e-01, -2.34500e-01, -7.11500e-02,  5.60800e-02],
                           [-1.05400e+00,  5.05900e-01, -5.43600e-01, -2.99900e-01,  1.85300e-01,  1.37800e-01, -5.20500e-02, -4.24000e-02],
                           [-7.19200e-01,  2.46700e-01,  2.98300e-02, -1.88500e-01, -1.31000e-01,  6.72100e-02,  7.50500e-02, -2.41100e-02],
                           [-2.65200e-01,  1.02200e-01,  9.59100e-02,  4.13400e-02, -6.47800e-02, -7.81800e-02,  2.22600e-02,  4.95600e-02],
                           [-5.08300e-02,  3.23000e-02,  5.45900e-02,  4.03300e-02,  2.35500e-02, -2.37600e-02, -4.46500e-02,  5.43200e-03],
                           [-8.79000e-02, -5.79300e-03,  1.14900e-02,  1.80800e-02,  1.75000e-02,  1.52300e-02, -1.00200e-02, -2.67200e-02],
                           [-7.18900e-02, -4.40100e-02, -2.12000e-02,  5.22600e-03,  9.22300e-03,  9.75000e-03,  1.07300e-02, -4.56400e-03],
                           [-7.22400e-02,  1.24300e-02, -1.62800e-02, -1.33000e-02,  1.88800e-03,  5.14100e-03,  5.93900e-03,  7.43000e-03],
                           [ 4.04500e-02, -2.68200e-02, -3.50500e-04, -3.46000e-03, -4.50600e-03, -2.77700e-04,  1.88900e-03,  3.80700e-03]])
#  aQOOHb(+M) <=> aQOOHg(+M)                           1.000e+00 0.000     0.000
#      TCHEB/ 180.000   1500.000 /
#      PCHEB/ 0.010     98.692   /
#      CHEB/ 10 8/
#      CHEB/ -1.241e+01   4.309e+00    -2.103e-01   -9.144e-03   3.904e-03   /
#      CHEB/ -1.079e-02   2.196e-04    2.160e-03    -5.901e+00   -4.013e-01  /
#      CHEB/ 3.791e-01    1.091e-01    1.858e-02    5.211e-03    -6.062e-03  /
#      CHEB/ -2.994e-03   -3.580e+00   -4.737e-01   -3.034e-01   -6.240e-02  /
#      CHEB/ 1.434e-02    1.377e-02    4.249e-03    -4.218e-04   -1.299e+00  /
#      CHEB/ 2.770e-02    -7.673e-02   -6.438e-02   -2.447e-02   -3.643e-03  /
#      CHEB/ 1.630e-03    1.712e-03    -4.694e-01   1.021e-01    2.389e-02   /
#      CHEB/ 3.155e-03    -1.546e-03   -4.179e-03   -2.909e-03   -5.937e-04  /
#      CHEB/ -2.462e-01   1.518e-02    1.088e-02    4.149e-03    3.334e-03   /
#      CHEB/ 2.473e-03    2.181e-05    -7.947e-04   -1.118e-01   -1.410e-02  /
#      CHEB/ -5.833e-03   -2.225e-03   -4.097e-04   6.095e-04    6.362e-04   /
#      CHEB/ 1.100e-04    -3.592e-02   -3.393e-03   3.010e-03    6.678e-04   /
#      CHEB/ -6.850e-04   -8.020e-05   -2.977e-06   -9.535e-05   3.927e-03   /
#      CHEB/ -2.216e-03   5.667e-03    2.808e-03    6.684e-05    1.328e-05   /
#      CHEB/ 1.418e-04    -2.443e-05   -1.884e-02   4.155e-03    -2.275e-03  /
#      CHEB/ -1.979e-03   1.822e-04    4.782e-04    1.743e-04    1.190e-04   /
#  aQOOH[O](+M) <=> aQOOHg(+M)                         1.000e+00 0.000     0.000
#      TCHEB/ 180.000   1500.000 /
#      PCHEB/ 0.010     98.692   /
#      CHEB/ 10 8/
#      CHEB/ -8.158e+00   6.190e+00    -2.878e-01   -3.154e-01   8.893e-02   /
#      CHEB/ 4.741e-02    -2.423e-02   -6.421e-03   -5.434e+00   -2.478e+00  /
#      CHEB/ 2.732e-01    2.570e-01    -1.245e-01   -2.964e-02   3.495e-02   /
#      CHEB/ 2.232e-03    -3.812e+00   -2.812e-01   -1.746e-01   1.478e-02   /
#      CHEB/ 2.132e-02    -1.279e-02   -3.097e-03   4.157e-03    -1.691e+00  /
#      CHEB/ 1.241e-01    -4.096e-02   -2.464e-02   3.670e-03    -2.768e-03  /
#      CHEB/ -3.365e-03   1.384e-03    -5.606e-01   7.910e-02    3.155e-02   /
#      CHEB/ 2.068e-03    2.064e-03    6.085e-04    -2.323e-03   -9.638e-04  /