units(length='cm', time='s', quantity='mol', act_energy='kcal/mol')

ideal_gas(name='gas',
          elements="H D T C Ci O Oi N Ne Ar He Si S F Cl Br I X",
          species="""propene3ol       OH               disub_c4ether
                     H2O              disub_epoxy      gQOOHa
                     propene1ol       gQOOHb           ipropylOOH
                     galdoxy          galkene          CH2O
                     O2               gRO2             gQOOHg
                     gR               galdol           monosub_c4ether
                     HO2              gQOOH[O]""",
          reactions='all',
          initial_state=state(temperature=300.0, pressure=OneAtm))

#-------------------------------------------------------------------------------
# Element data
#-------------------------------------------------------------------------------

element(symbol='Ci', atomic_mass=13.003)
element(symbol='D', atomic_mass=2.014)
element(symbol='Oi', atomic_mass=18.0)
element(symbol='T', atomic_mass=3.016)
element(symbol='X', atomic_mass=195.083)
#-------------------------------------------------------------------------------
# Species data
#-------------------------------------------------------------------------------

species(name='propene3ol',
        atoms='C:3 H:6 O:1',
        thermo=(NASA([10.00, 444.81],
                     [ 3.92769709E+00,  4.89977303E-03,  1.13094874E-04,
                      -2.59008187E-07,  1.86205760E-10, -1.57661013E+04,
                       9.90805416E+00]),
                NASA([444.81, 3000.00],
                     [ 2.61720343E+00,  3.01777872E-02, -1.76511625E-05,
                       5.14864061E-09, -5.91153761E-13, -1.57830018E+04,
                       1.36683107E+01])))

species(name='OH',
        atoms='H:1 O:1',
        thermo=(NASA([10.00, 984.14],
                     [ 3.49686242E+00,  1.83973160E-04, -9.97634499E-07,
                       1.56942783E-09, -6.10128175E-13,  3.41673934E+03,
                       1.48093120E+00]),
                NASA([984.14, 3000.00],
                     [ 3.45221464E+00, -2.95124034E-04,  7.39418622E-07,
                      -2.89309866E-10,  3.53041498E-14,  3.45751599E+03,
                       1.85813897E+00])))

species(name='disub_c4ether',
        atoms='C:4 H:8 O:2',
        thermo=(NASA([10.00, 413.50],
                     [ 3.78241323E+00,  1.89501763E-02,  8.65302396E-05,
                      -1.80580575E-07,  1.13656264E-10, -3.95284536E+04,
                       1.09982450E+01]),
                NASA([413.50, 3000.00],
                     [ 4.29420885E-01,  5.13851903E-02, -3.11292293E-05,
                       9.11498284E-09, -1.03192718E-12, -3.92511593E+04,
                       2.42134976E+01])))

species(name='H2O',
        atoms='H:2 O:1',
        thermo=(NASA([10.00, 773.84],
                     [ 4.00473541E+00, -2.39729134E-04,  8.11862955E-07,
                       1.47891862E-09, -1.19783539E-12, -3.03533807E+04,
                      -9.96254147E-02]),
                NASA([773.84, 3000.00],
                     [ 3.52133374E+00,  1.05377009E-03,  6.40722099E-07,
                      -3.86240235E-10,  5.49243294E-14, -3.02424794E+04,
                       2.34173094E+00])))

species(name='disub_epoxy',
        atoms='C:4 H:8 O:2',
        thermo=(NASA([10.00, 549.41],
                     [ 3.89863211E+00,  5.97532637E-03,  1.66685676E-04,
                      -3.10743768E-07,  1.78330192E-10, -3.81901398E+04,
                       1.13847308E+01]),
                NASA([549.41, 3000.00],
                     [-6.40277648E-01,  6.05960003E-02, -4.13427220E-05,
                       1.31555461E-08, -1.57685017E-12, -3.80170229E+04,
                       2.76005436E+01])))

species(name='gQOOHa',
        atoms='C:4 H:9 O:3',
        thermo=(NASA([10.00, 160.74],
                     [ 3.80808147E+00,  2.31043884E-02,  5.26945984E-04,
                      -3.11500696E-06,  6.03881958E-09, -2.60261198E+04,
                       1.17645316E+01]),
                NASA([160.74, 3000.00],
                     [ 2.90630300E+00,  6.50241173E-02, -4.60073244E-05,
                       1.51330930E-08, -1.87074267E-12, -2.60222952E+04,
                       1.36838819E+01])))

species(name='propene1ol',
        atoms='C:3 H:6 O:1',
        thermo=(NASA([10.00, 459.42],
                     [ 3.91245344E+00,  5.85800161E-03,  1.15412006E-04,
                      -2.68014417E-07,  1.91800131E-10, -1.83388882E+04,
                       8.14807684E+00]),
                NASA([459.42, 3000.00],
                     [ 3.14049093E+00,  2.95550898E-02, -1.73843684E-05,
                       5.11506211E-09, -5.92966137E-13, -1.84471108E+04,
                       9.32215170E+00])))

species(name='gQOOHb',
        atoms='C:4 H:9 O:3',
        thermo=(NASA([10.00, 1018.67],
                     [ 3.99028351E+00,  4.29665712E-02,  2.28338778E-05,
                      -5.67914439E-08,  2.29383258E-11, -2.39639198E+04,
                       1.20326731E+01]),
                NASA([1018.67, 3000.00],
                     [ 1.38304153E+01,  3.88527019E-02, -2.19473905E-05,
                       5.78719895E-09, -5.85097740E-13, -2.77600046E+04,
                      -4.44147388E+01])))

species(name='ipropylOOH',
        atoms='C:3 H:7 O:2',
        thermo=(NASA([10.00, 405.01],
                     [ 3.30075623E+00,  7.58672756E-02, -3.35754269E-04,
                       8.05972164E-07, -6.68864582E-10, -3.28578584E+02,
                       1.43372849E+01]),
                NASA([405.01, 3000.00],
                     [ 2.51742509E+00,  3.72760950E-02, -2.12450220E-05,
                       5.83593926E-09, -6.22110649E-13,  1.14829022E+02,
                       2.20991392E+01])))

species(name='galdoxy',
        atoms='C:4 H:7 O:2',
        thermo=(NASA([10.00, 209.62],
                     [ 3.82641108E+00,  1.84758886E-02,  3.43073800E-04,
                      -1.82817005E-06,  2.98516720E-09, -1.89509497E+04,
                       1.17972706E+01]),
                NASA([209.62, 3000.00],
                     [ 4.22049016E+00,  4.03370149E-02, -2.36129482E-05,
                       6.72979114E-09, -7.47862493E-13, -1.90320195E+04,
                       8.97211724E+00])))

species(name='galkene',
        atoms='C:4 H:8 O:1',
        thermo=(NASA([10.00, 383.47],
                     [ 3.84035604E+00,  1.20378740E-02,  1.87486319E-04,
                      -5.44759148E-07,  4.80711015E-10, -2.16548105E+04,
                       1.02570291E+01]),
                NASA([383.47, 3000.00],
                     [ 4.00413385E+00,  3.79025144E-02, -2.15435710E-05,
                       6.15213311E-09, -6.97446345E-13, -2.18700998E+04,
                       6.98052628E+00])))

species(name='CH2O',
        atoms='C:1 H:2 O:1',
        thermo=(NASA([10.00, 601.31],
                     [ 4.03190845E+00, -1.93233367E-03,  8.89743345E-06,
                       2.98105926E-09, -7.90813886E-12, -1.42276270E+04,
                       3.47574660E+00]),
                NASA([601.31, 3000.00],
                     [ 1.40134195E+00,  9.48858016E-03, -4.43088317E-06,
                       9.48452194E-10, -7.43790219E-14, -1.38013869E+04,
                       1.57423780E+01])))

species(name='O2',
        atoms='O:2',
        thermo=(NASA([10.00, 605.96],
                     [ 3.50743498E+00, -4.43860349E-04,  1.45938058E-06,
                       1.61509333E-09, -2.32050052E-12, -9.24756224E+02,
                       4.72183634E+00]),
                NASA([605.96, 3000.00],
                     [ 2.87462882E+00,  2.17840991E-03, -1.18262921E-06,
                       2.86910493E-10, -2.53297146E-14, -8.19517838E+02,
                       7.69331810E+00])))

species(name='gRO2',
        atoms='C:4 H:9 O:3',
        thermo=(NASA([10.00, 177.33],
                     [ 3.70632176E+00,  3.49733664E-02,  4.64036392E-04,
                      -3.18637835E-06,  6.38178607E-09, -2.81829671E+04,
                       1.24459269E+01]),
                NASA([177.33, 3000.00],
                     [ 4.82062697E+00,  5.17179689E-02, -3.18386818E-05,
                       9.52247045E-09, -1.10180288E-12, -2.82883376E+04,
                       7.14082953E+00])))

species(name='gQOOHg',
        atoms='C:4 H:9 O:3',
        thermo=(NASA([10.00, 475.03],
                     [ 3.42273720E+00,  4.98344215E-02,  6.47820920E-05,
                      -2.49842966E-07,  1.98636537E-10, -2.06109045E+04,
                       1.41578583E+01]),
                NASA([475.03, 3000.00],
                     [ 5.94049074E+00,  5.53778585E-02, -3.71708255E-05,
                       1.17540477E-08, -1.40812095E-12, -2.11518588E+04,
                       7.09201218E-01])))

species(name='gR',
        atoms='C:4 H:9 O:1',
        thermo=(NASA([10.00, 638.24],
                     [ 3.37074633E+00,  5.17529751E-02, -6.54872940E-05,
                       6.88084237E-08, -3.21569794E-11, -9.94599576E+03,
                       1.14339669E+01]),
                NASA([638.24, 3000.00],
                     [ 3.99410860E+00,  4.06314915E-02, -2.23932510E-05,
                       6.08356263E-09, -6.49884708E-13, -9.87862104E+03,
                       9.85769960E+00])))

species(name='galdol',
        atoms='C:4 H:8 O:2',
        thermo=(NASA([10.00, 506.68],
                     [ 3.85380874E+00,  9.21272695E-03,  1.86712348E-04,
                      -3.96417049E-07,  2.55528268E-10, -4.74433355E+04,
                       1.24312743E+01]),
                NASA([506.68, 3000.00],
                     [ 1.49710213E+00,  5.65979142E-02, -3.87709084E-05,
                       1.23682052E-08, -1.48287964E-12, -4.75739449E+04,
                       1.85531759E+01])))

species(name='monosub_c4ether',
        atoms='C:4 H:8 O:2',
        thermo=(NASA([10.00, 380.36],
                     [ 3.47743996E+00,  6.08051311E-02, -2.78518945E-04,
                       8.23182713E-07, -7.87158031E-10, -3.23344660E+04,
                       1.06415154E+01]),
                NASA([380.36, 3000.00],
                     [-1.09346901E+00,  5.35985968E-02, -3.21081420E-05,
                       9.20818293E-09, -1.01830294E-12, -3.15869059E+04,
                       3.35312368E+01])))

species(name='HO2',
        atoms='H:1 O:2',
        thermo=(NASA([10.00, 891.11],
                     [ 4.02887004E+00, -1.75769289E-03,  1.08726004E-05,
                      -1.13812972E-08,  3.90113097E-12,  4.95165001E+02,
                       4.69302008E+00]),
                NASA([891.11, 3000.00],
                     [ 3.06571044E+00,  4.28505005E-03, -2.19325920E-06,
                       5.58882699E-10, -5.61246669E-14,  5.98557610E+02,
                       8.84564156E+00])))

species(name='gQOOH[O]',
        atoms='C:4 H:9 O:3',
        thermo=(NASA([10.00, 535.23],
                     [ 3.83107445E+00,  1.02302002E-02,  2.29377261E-04,
                      -4.59095575E-07,  2.77765018E-10, -2.03411445E+04,
                       1.41034859E+01]),
                NASA([535.23, 3000.00],
                     [-4.19283096E-01,  7.69784620E-02, -5.57279000E-05,
                       1.81378295E-08, -2.18295635E-12, -2.03872579E+04,
                       2.72711816E+01])))

#-------------------------------------------------------------------------------
# Reaction data
#-------------------------------------------------------------------------------

# Reaction 1
chebyshev_reaction('gQOOH[O] (+ M) <=> gRO2 (+ M)',
                   Tmin=180.0, Tmax=1500.0,
                   Pmin=(0.01, 'atm'), Pmax=(98.692, 'atm'),
                   coeffs=[[ 4.14400e+00,  5.74600e-01, -6.88400e-02,  1.93600e-02, -1.51100e-03, -1.06800e-03,  4.10100e-04,  1.90100e-05],
                           [-8.30800e-01,  7.41000e-01, -2.39600e-02,  9.37000e-03, -5.13300e-05, -8.41800e-04,  3.45000e-04, -2.31000e-05],
                           [-2.91000e+00,  1.34100e-01,  6.84100e-02, -3.90000e-03, -3.06700e-03,  1.67500e-03, -3.93900e-05, -2.12500e-04],
                           [-1.84300e+00, -1.35100e-01,  3.53400e-02,  2.20500e-03, -2.50000e-03,  9.85500e-04,  1.01100e-04, -1.50300e-04],
                           [-9.30300e-01, -1.10900e-01, -1.99200e-02,  1.13000e-03,  1.09900e-03, -1.14600e-04, -3.56300e-05,  4.95200e-05],
                           [-3.93800e-01, -2.11900e-02, -2.81500e-02, -4.66500e-03,  1.59400e-03, -3.67100e-05, -1.49400e-04,  6.89900e-05],
                           [-1.42700e-01,  2.25900e-02, -9.13600e-03, -4.49100e-03, -1.48700e-04,  6.41400e-05, -2.05100e-05,  3.49600e-06],
                           [-5.36800e-02,  2.00700e-02,  3.57700e-03,  1.06400e-04, -7.82900e-04, -1.52700e-04,  7.17700e-05, -1.06500e-05],
                           [-2.70300e-02,  1.56600e-03,  3.19800e-03,  2.51300e-03, -4.75200e-05, -1.81000e-04,  3.38100e-05, -1.35600e-06],
                           [-1.05000e-02, -9.84700e-03, -1.85000e-03,  1.15000e-03,  5.30200e-04,  2.23000e-05, -3.29700e-06, -2.41400e-06]])

# Reaction 2
chebyshev_reaction('gQOOHa (+ M) <=> gRO2 (+ M)',
                   Tmin=180.0, Tmax=1500.0,
                   Pmin=(0.01, 'atm'), Pmax=(98.692, 'atm'),
                   coeffs=[[-2.02100e+00,  8.97200e-01, -1.32700e-01,  1.14300e-02,  2.50200e-03,  4.32900e-04, -3.42300e-04,  2.88500e-07],
                           [ 4.79400e+00,  1.26400e+00, -9.30600e-02, -1.57800e-02,  1.13700e-02, -6.48400e-04, -1.95100e-04, -7.51400e-05],
                           [-2.12400e+00,  4.20500e-01,  7.12500e-02, -1.23100e-02, -5.55700e-04,  1.68400e-03, -6.77700e-05, -1.42100e-04],
                           [-1.42300e+00, -1.28300e-01,  8.78300e-02,  1.30300e-02, -5.83900e-03,  3.44700e-04,  4.55400e-04, -4.64200e-05],
                           [-8.32400e-01, -2.71400e-01,  1.84700e-02,  2.09300e-02, -5.10300e-05, -1.41500e-03,  1.24900e-04,  1.85100e-04],
                           [-4.26200e-01, -2.00600e-01, -3.56600e-02,  7.86000e-03,  4.87200e-03, -4.69600e-04, -4.17400e-04,  1.11300e-04],
                           [-1.71400e-01, -9.41900e-02, -4.23300e-02, -7.30000e-03,  3.24600e-03,  1.15300e-03, -2.10100e-04, -1.19600e-04],
                           [-6.61800e-02, -1.92500e-02, -2.35100e-02, -1.15300e-02, -1.31800e-03,  1.22500e-03,  3.18800e-04, -1.27600e-04],
                           [ 8.87600e-03,  1.48900e-02, -1.88700e-03, -7.58600e-03, -3.41500e-03, -6.60400e-05,  4.36800e-04,  4.82400e-05],
                           [-1.20000e-03,  2.53700e-02,  7.90200e-03, -2.78500e-04, -2.84300e-03, -9.97600e-04,  6.50700e-05,  1.41600e-04]])

# Reaction 3
chebyshev_reaction('gQOOHg (+ M) <=> gRO2 (+ M)',
                   Tmin=180.0, Tmax=1500.0,
                   Pmin=(0.01, 'atm'), Pmax=(98.692, 'atm'),
                   coeffs=[[ 3.59700e+00,  6.30300e-01, -3.82800e-02,  1.77500e-02, -6.08900e-04, -4.85100e-04,  5.60200e-05,  8.35300e-05],
                           [-2.29200e+00,  8.95400e-01, -3.91800e-03,  1.65800e-02,  2.91700e-03, -1.48900e-03,  1.89300e-04,  7.63000e-05],
                           [-3.09300e+00,  1.86200e-01,  7.91500e-02,  3.49200e-03,  2.61900e-03, -2.15400e-05, -2.07400e-04, -1.73200e-05],
                           [-1.88000e+00, -2.97700e-01,  5.51400e-02,  1.12700e-02, -2.64400e-04,  1.02200e-03, -2.14300e-04, -1.51100e-04],
                           [-9.08600e-01, -3.49300e-01, -3.36500e-02,  1.40000e-02,  1.26800e-03,  4.20700e-04,  1.02800e-04, -1.22900e-04],
                           [-3.32900e-01, -1.55000e-01, -7.85200e-02, -2.87300e-03,  4.24200e-03,  2.92400e-04,  1.50600e-04,  6.15800e-05],
                           [-7.54600e-02,  2.00300e-02, -4.65000e-02, -2.02100e-02,  1.67200e-03,  1.36000e-03,  1.56000e-04,  1.16100e-04],
                           [-3.38900e-02,  6.57100e-02,  8.98500e-03, -1.71600e-02, -4.60600e-03,  1.43000e-03,  4.82700e-04,  4.97900e-06],
                           [-9.50200e-03,  2.60200e-02,  3.11500e-02,  6.98300e-04, -6.51800e-03, -5.39800e-04,  6.12300e-04, -1.06000e-05],
                           [-3.08400e-02, -1.65100e-02,  1.46300e-02,  1.25800e-02, -1.73100e-03, -2.33600e-03, -3.19700e-05,  1.26900e-04]])

# Reaction 4
chebyshev_reaction('gQOOHb (+ M) <=> gRO2 (+ M)',
                   Tmin=180.0, Tmax=1500.0,
                   Pmin=(0.01, 'atm'), Pmax=(98.692, 'atm'),
                   coeffs=[[-2.45700e+00,  8.88500e-01, -6.20900e-02, -7.98200e-03,  3.78600e-03,  1.23700e-05, -1.83300e-04,  3.29100e-05],
                           [ 4.63400e+00,  1.33600e+00, -4.81400e-02, -1.36600e-02,  4.02000e-03,  2.01000e-04, -1.36900e-04,  1.75900e-05],
                           [-1.91500e+00,  4.63600e-01,  6.20600e-02, -4.06800e-05, -2.70200e-03,  3.20400e-04,  2.12600e-04, -3.75500e-05],
                           [-1.49700e+00, -1.24800e-01,  6.80600e-02,  1.52400e-02, -3.43000e-03, -2.53500e-04,  2.08100e-04, -5.57500e-06],
                           [-9.09900e-01, -2.43100e-01,  3.65300e-03,  1.36000e-02,  1.38400e-03, -3.80100e-04, -1.29700e-04,  3.09600e-05],
                           [-4.07800e-01, -1.44500e-01, -3.57500e-02, -3.17200e-05,  3.37000e-03,  3.90900e-04, -2.14000e-04, -1.53500e-05],
                           [-1.77100e-01, -5.27400e-02, -2.91700e-02, -8.00300e-03,  6.14800e-04,  7.07500e-04,  7.74200e-05, -3.94400e-05],
                           [-5.19100e-02, -1.09800e-02, -9.35900e-03, -6.04200e-03, -1.89300e-03,  7.45700e-05,  2.26100e-04,  2.00800e-05],
                           [-2.69200e-02,  6.76000e-03,  1.74000e-03, -1.26900e-03, -1.63600e-03, -4.84600e-04,  3.98800e-05,  5.26700e-05],
                           [ 1.56600e-02,  1.28200e-02,  4.47700e-03,  1.27000e-03, -2.57700e-04, -3.97900e-04, -1.40900e-04,  5.01900e-06]])

# Reaction 5
chebyshev_reaction('O2 + gR (+ M) <=> gRO2 (+ M)',
                   Tmin=180.0, Tmax=1500.0,
                   Pmin=(0.01, 'atm'), Pmax=(98.692, 'atm'),
                   coeffs=[[ 1.37200e+01,  6.97100e-01, -6.32300e-02,  5.32200e-03, -4.92400e-04, -2.05900e-05, -4.67400e-06,  8.86000e-06],
                           [-2.86500e+00,  9.57000e-01, -1.18400e-02, -9.11500e-03,  7.57300e-04,  1.39400e-04, -4.92600e-05, -3.04600e-06],
                           [-1.70900e+00,  3.94400e-01,  4.93400e-02, -2.72800e-03, -1.35100e-03,  7.93400e-05,  4.72600e-05, -5.30500e-06],
                           [-9.76300e-01,  8.42500e-02,  3.29900e-02,  5.03700e-03, -2.69300e-04, -2.43900e-04, -9.03400e-07,  1.08700e-05],
                           [-5.34100e-01, -2.33700e-02,  7.98200e-03,  3.78800e-03,  8.12300e-04, -2.33600e-05, -4.05300e-05, -5.94800e-06],
                           [-2.78800e-01, -4.39000e-02, -2.78700e-03,  8.20000e-04,  5.29500e-04,  1.27200e-04,  9.88600e-06, -8.59900e-06],
                           [-1.35700e-01, -3.79100e-02, -5.07100e-03, -3.46100e-04,  8.31300e-05,  5.54400e-05,  2.59800e-05,  3.64600e-06],
                           [-5.76800e-02, -2.58900e-02, -4.93300e-03, -5.32500e-04, -3.54300e-05, -6.38100e-06,  4.63500e-06,  5.01600e-06],
                           [-1.75100e-02, -1.35800e-02, -4.14600e-03, -5.97900e-04, -3.82600e-05, -3.93800e-06, -5.39700e-06, -1.98400e-07],
                           [ 8.37100e-04, -3.61400e-03, -2.78000e-03, -6.41800e-04, -7.18500e-05,  4.03600e-06, -9.03400e-07, -1.79100e-06]])
#  gRO2(+M) <=> gQOOH[O](+M)                           1.000e+00 0.000     0.000
#      TCHEB/ 180.000   1500.000 /
#      PCHEB/ 0.010     98.692   /
#      CHEB/ 10 8/
#      CHEB/ -6.937e+00   5.746e-01    -6.884e-02   1.936e-02    -1.511e-03  /
#      CHEB/ -1.068e-03   4.101e-04    1.901e-05    7.230e+00    7.410e-01   /
#      CHEB/ -2.396e-02   9.370e-03    -5.133e-05   -8.418e-04   3.450e-04   /
#      CHEB/ -2.310e-05   -2.737e+00   1.341e-01    6.841e-02    -3.900e-03  /
#      CHEB/ -3.067e-03   1.675e-03    -3.939e-05   -2.125e-04   -1.718e+00  /
#      CHEB/ -1.351e-01   3.534e-02    2.205e-03    -2.500e-03   9.855e-04   /
#      CHEB/ 1.011e-04    -1.503e-04   -8.766e-01   -1.109e-01   -1.992e-02  /
#      CHEB/ 1.130e-03    1.099e-03    -1.146e-04   -3.563e-05   4.952e-05   /
#      CHEB/ -3.748e-01   -2.119e-02   -2.815e-02   -4.665e-03   1.594e-03   /
#      CHEB/ -3.671e-05   -1.494e-04   6.899e-05    -1.365e-01   2.259e-02   /
#      CHEB/ -9.136e-03   -4.491e-03   -1.487e-04   6.414e-05    -2.051e-05  /
#      CHEB/ 3.496e-06    -5.176e-02   2.007e-02    3.577e-03    1.064e-04   /
#      CHEB/ -7.829e-04   -1.527e-04   7.177e-05    -1.065e-05   -2.657e-02  /
#      CHEB/ 1.566e-03    3.198e-03    2.513e-03    -4.752e-05   -1.810e-04  /
#      CHEB/ 3.381e-05    -1.356e-06   -1.053e-02   -9.847e-03   -1.850e-03  /
#      CHEB/ 1.150e-03    5.302e-04    2.230e-05    -3.297e-06   -2.414e-06  /

# Reaction 6
chebyshev_reaction('gQOOHa (+ M) <=> gQOOH[O] (+ M)',
                   Tmin=180.0, Tmax=1500.0,
                   Pmin=(0.01, 'atm'), Pmax=(98.692, 'atm'),
                   coeffs=[[-1.04200e+01, -2.15700e-03, -3.47200e-01,  5.48700e-02,  5.29000e-03, -4.84200e-03,  8.04400e-04,  2.87800e-04],
                           [ 5.96100e+00,  2.01200e+00, -1.57500e-02, -3.65100e-02,  9.30400e-03,  2.68500e-03, -9.84500e-04, -3.24900e-04],
                           [-3.23000e+00,  1.98400e-01,  2.20800e-01, -1.07500e-02, -1.30600e-02,  5.34400e-03,  5.66200e-04, -7.98900e-04],
                           [-2.08900e+00, -3.44900e-01,  7.11100e-02,  2.40100e-02, -3.99200e-03, -6.68800e-04,  5.37900e-04,  7.85400e-05],
                           [-1.02800e+00, -2.79700e-01, -4.32500e-02,  1.18900e-02,  5.10100e-03, -1.14000e-03, -4.07900e-04,  2.90600e-04],
                           [-4.27700e-01, -1.10800e-01, -5.63800e-02, -5.15400e-03,  4.29500e-03,  2.82500e-04, -3.86200e-04,  3.25600e-05],
                           [-1.42100e-01, -6.18000e-03, -2.98900e-02, -1.03800e-02,  7.34400e-04,  9.14600e-04, -8.83200e-06, -1.25600e-04],
                           [-3.46100e-02,  2.74400e-02, -5.75000e-03, -7.59100e-03, -1.89100e-03,  6.86200e-04,  2.95800e-04, -8.65100e-05],
                           [-4.40200e-03,  2.32900e-02,  6.10100e-03, -2.95200e-03, -2.50900e-03, -1.64300e-04,  3.35900e-04,  4.84200e-05],
                           [-6.61600e-04,  1.14100e-02,  7.38100e-03,  1.01700e-03, -1.75200e-03, -7.73000e-04,  5.38600e-05,  1.09800e-04]])

# Reaction 7
chebyshev_reaction('gQOOHg (+ M) <=> gQOOH[O] (+ M)',
                   Tmin=180.0, Tmax=1500.0,
                   Pmin=(0.01, 'atm'), Pmax=(98.692, 'atm'),
                   coeffs=[[-4.69000e+00, -4.26600e-01, -1.88200e-01,  5.42900e-02, -2.89200e-03, -3.20200e-03,  9.47500e-04,  1.79900e-04],
                           [-1.13400e+00,  1.71300e+00,  3.55600e-02,  5.48800e-03,  4.42400e-03, -1.34300e-03,  4.08100e-05,  4.71100e-05],
                           [-4.26200e+00,  3.40400e-02,  2.12200e-01, -4.87900e-03, -3.17600e-03,  3.36000e-03, -5.38000e-04, -3.74600e-04],
                           [-2.56700e+00, -5.43300e-01,  5.15300e-02,  1.93800e-02, -9.43800e-04,  1.50700e-03, -1.16400e-04, -2.31900e-04],
                           [-1.07800e+00, -3.84500e-01, -9.28300e-02,  1.01700e-02,  4.20200e-03,  3.24700e-05,  1.43400e-04, -2.49300e-05],
                           [-3.13200e-01, -6.66500e-02, -1.02800e-01, -1.35800e-02,  4.73000e-03,  2.27000e-04,  7.14200e-05,  1.45900e-04],
                           [-4.22100e-02,  1.12000e-01, -3.46400e-02, -2.45200e-02,  3.66100e-04,  1.35400e-03,  2.28600e-05,  1.14900e-04],
                           [-7.62500e-03,  1.12900e-01,  2.78600e-02, -1.42200e-02, -5.27100e-03,  1.35000e-03,  4.67500e-04, -5.14100e-05],
                           [-2.40200e-02,  3.32700e-02,  3.95800e-02,  5.37400e-03, -5.98500e-03, -6.45900e-04,  6.96300e-04, -2.21900e-05],
                           [-3.26900e-02, -2.95300e-02,  1.27600e-02,  1.45900e-02, -7.62200e-04, -2.32200e-03,  1.20200e-05,  1.57500e-04]])

# Reaction 8
chebyshev_reaction('gQOOHb (+ M) <=> gQOOH[O] (+ M)',
                   Tmin=180.0, Tmax=1500.0,
                   Pmin=(0.01, 'atm'), Pmax=(98.692, 'atm'),
                   coeffs=[[-1.02100e+01, -2.03500e-02, -2.26300e-01,  2.06600e-02,  5.98200e-03, -3.59800e-03,  4.66400e-04,  3.33000e-04],
                           [ 5.18400e+00,  2.07800e+00,  3.09400e-02, -2.41500e-02,  4.70400e-04,  1.75400e-03, -8.15900e-05, -2.56500e-04],
                           [-3.11700e+00,  1.52200e-01,  1.88000e-01,  7.02900e-03, -1.07400e-02,  2.98800e-03,  2.76000e-04, -4.46200e-04],
                           [-2.10200e+00, -3.41300e-01,  3.15300e-02,  1.80000e-02,  3.70900e-04,  9.70300e-05, -7.86600e-05,  4.07500e-05],
                           [-1.01400e+00, -2.12400e-01, -5.21500e-02, -4.42100e-04,  3.63000e-03,  7.12600e-05, -9.41300e-05,  9.02500e-05],
                           [-4.22200e-01, -5.52200e-02, -4.12100e-02, -9.28800e-03,  8.65500e-04,  1.36600e-04, -3.59000e-05,  3.49000e-05],
                           [-1.49600e-01,  2.02700e-02, -1.34600e-02, -6.91000e-03, -7.59900e-04,  7.64500e-05, -5.35300e-05, -1.31400e-05],
                           [-4.08900e-02,  3.12400e-02,  3.96300e-03, -2.07500e-03, -1.09100e-03, -6.37800e-05,  6.14000e-05, -1.52700e-05],
                           [-1.59500e-02,  1.71000e-02,  6.72300e-03,  1.68200e-03, -5.98600e-04, -2.60400e-04,  6.71400e-05,  1.95200e-05],
                           [-5.06200e-03,  9.40400e-04,  2.99200e-03,  2.21500e-03,  1.99700e-04, -1.99000e-04, -2.32800e-05,  9.02300e-06]])

# Reaction 9
chebyshev_reaction('O2 + gR (+ M) <=> gQOOH[O] (+ M)',
                   Tmin=180.0, Tmax=1500.0,
                   Pmin=(0.01, 'atm'), Pmax=(98.692, 'atm'),
                   coeffs=[[ 7.19400e+00,  4.37200e-01, -2.78300e-01,  6.10000e-03, -7.00100e-04, -2.17300e-03,  2.74700e-03,  7.83500e-05],
                           [-3.92700e+00,  8.70700e-01,  2.12000e-01,  2.32800e-02, -6.39200e-03, -1.76900e-03, -2.52800e-03,  2.53000e-04],
                           [-2.55400e+00,  1.93800e-01,  5.54300e-02, -6.46900e-03,  5.60600e-03,  4.77300e-03, -4.99200e-04, -8.39000e-04],
                           [-1.44000e+00, -3.57600e-02, -2.66000e-03, -6.08300e-03, -2.95100e-03,  1.08700e-03,  1.17000e-03,  1.00100e-04],
                           [-6.99100e-01, -9.72100e-03, -1.68200e-02, -4.56900e-03, -1.32200e-03, -1.08700e-03, -4.97300e-05,  2.77000e-04],
                           [-2.88300e-01,  3.36900e-02, -8.31300e-03, -3.33100e-03,  7.57800e-04, -5.07900e-04, -4.56200e-04, -1.57700e-05],
                           [-1.01700e-01,  4.00500e-02,  4.09500e-03, -7.76600e-04,  4.33400e-04,  4.59900e-05, -1.33400e-04, -5.84300e-05],
                           [-3.41000e-02,  1.73300e-02,  6.87900e-03,  1.97800e-03,  2.99900e-04,  1.15300e-04,  4.60900e-05, -3.44300e-05],
                           [-1.85000e-02, -3.89100e-03,  2.11800e-03,  2.49000e-03,  4.26100e-04, -2.56200e-05,  9.13500e-05,  3.27400e-05],
                           [-1.05500e-02, -1.57400e-02, -4.69400e-03,  8.26100e-04,  5.42400e-04,  1.18200e-04,  3.01700e-05, -5.16600e-06]])
#  gRO2(+M) <=> gQOOHa(+M)                             1.000e+00 0.000     0.000
#      TCHEB/ 180.000   1500.000 /
#      PCHEB/ 0.010     98.692   /
#      CHEB/ 10 8/
#      CHEB/ -5.243e+00   8.972e-01    -1.327e-01   1.143e-02    2.502e-03   /
#      CHEB/ 4.329e-04    -3.423e-04   2.885e-07    7.304e+00    1.264e+00   /
#      CHEB/ -9.306e-02   -1.578e-02   1.137e-02    -6.484e-04   -1.951e-04  /
#      CHEB/ -7.514e-05   -1.963e+00   4.205e-01    7.125e-02    -1.231e-02  /
#      CHEB/ -5.557e-04   1.684e-03    -6.777e-05   -1.421e-04   -1.348e+00  /
#      CHEB/ -1.283e-01   8.783e-02    1.303e-02    -5.839e-03   3.447e-04   /
#      CHEB/ 4.554e-04    -4.642e-05   -8.039e-01   -2.714e-01   1.847e-02   /
#      CHEB/ 2.093e-02    -5.103e-05   -1.415e-03   1.249e-04    1.851e-04   /
#      CHEB/ -4.164e-01   -2.006e-01   -3.566e-02   7.860e-03    4.872e-03   /
#      CHEB/ -4.696e-04   -4.174e-04   1.113e-04    -1.685e-01   -9.419e-02  /
#      CHEB/ -4.233e-02   -7.300e-03   3.246e-03    1.153e-03    -2.101e-04  /
#      CHEB/ -1.196e-04   -6.555e-02   -1.925e-02   -2.351e-02   -1.153e-02  /
#      CHEB/ -1.318e-03   1.225e-03    3.188e-04    -1.276e-04   8.872e-03   /
#      CHEB/ 1.489e-02    -1.887e-03   -7.586e-03   -3.415e-03   -6.604e-05  /
#      CHEB/ 4.368e-04    4.824e-05    -1.318e-03   2.537e-02    7.902e-03   /
#      CHEB/ -2.785e-04   -2.843e-03   -9.976e-04   6.507e-05    1.416e-04   /
#  gQOOH[O](+M) <=> gQOOHa(+M)                         1.000e+00 0.000     0.000
#      TCHEB/ 180.000   1500.000 /
#      PCHEB/ 0.010     98.692   /
#      CHEB/ 10 8/
#      CHEB/ -2.563e+00   -2.157e-03   -3.472e-01   5.487e-02    5.290e-03   /
#      CHEB/ -4.842e-03   8.044e-04    2.878e-04    4.097e-01    2.012e+00   /
#      CHEB/ -1.575e-02   -3.651e-02   9.304e-03    2.685e-03    -9.845e-04  /
#      CHEB/ -3.249e-04   -3.241e+00   1.984e-01    2.208e-01    -1.075e-02  /
#      CHEB/ -1.306e-02   5.344e-03    5.662e-04    -7.989e-04   -2.140e+00  /
#      CHEB/ -3.449e-01   7.111e-02    2.401e-02    -3.992e-03   -6.688e-04  /
#      CHEB/ 5.379e-04    7.854e-05    -1.053e+00   -2.797e-01   -4.325e-02  /
#      CHEB/ 1.189e-02    5.101e-03    -1.140e-03   -4.079e-04   2.906e-04   /
#      CHEB/ -4.370e-01   -1.108e-01   -5.638e-02   -5.154e-03   4.295e-03   /
#      CHEB/ 2.825e-04    -3.862e-04   3.256e-05    -1.454e-01   -6.180e-03  /
#      CHEB/ -2.989e-02   -1.038e-02   7.344e-04    9.146e-04    -8.832e-06  /
#      CHEB/ -1.256e-04   -3.589e-02   2.744e-02    -5.750e-03   -7.591e-03  /
#      CHEB/ -1.891e-03   6.862e-04    2.958e-04    -8.651e-05   -4.867e-03  /
#      CHEB/ 2.329e-02    6.101e-03    -2.952e-03   -2.509e-03   -1.643e-04  /