units(length='cm', time='s', quantity='mol', act_energy='kcal/mol')

ideal_gas(name='gas',
          elements="H D T C Ci O Oi N Ne Ar He Si S F Cl Br I X",
          species="""propene3ol       OH               disub_c4ether
                     H2O              disub_epoxy      gQOOHa
                     propene1ol       gQOOHb           ipropylOOH
                     galdoxy          galkene          CH2O
                     O2               gRO2             gQOOHg
                     gR               galdol           monosub_c4ether
                     HO2              gQOOH[O]""",
          reactions='all',
          initial_state=state(temperature=300.0, pressure=OneAtm))

#-------------------------------------------------------------------------------
# Element data
#-------------------------------------------------------------------------------

element(symbol='Ci', atomic_mass=13.003)
element(symbol='D', atomic_mass=2.014)
element(symbol='Oi', atomic_mass=18.0)
element(symbol='T', atomic_mass=3.016)
element(symbol='X', atomic_mass=195.083)
#-------------------------------------------------------------------------------
# Species data
#-------------------------------------------------------------------------------

species(name='propene3ol',
        atoms='C:3 H:6 O:1',
        thermo=(NASA([10.00, 444.81],
                     [ 3.92769709E+00,  4.89977303E-03,  1.13094874E-04,
                      -2.59008187E-07,  1.86205760E-10, -1.53394497E+04,
                       9.90805416E+00]),
                NASA([444.81, 3000.00],
                     [ 2.61720343E+00,  3.01777872E-02, -1.76511625E-05,
                       5.14864061E-09, -5.91153761E-13, -1.53563501E+04,
                       1.36683107E+01])))

species(name='OH',
        atoms='H:1 O:1',
        thermo=(NASA([10.00, 984.14],
                     [ 3.49686242E+00,  1.83973160E-04, -9.97634499E-07,
                       1.56942783E-09, -6.10128175E-13,  3.41673934E+03,
                       1.48093120E+00]),
                NASA([984.14, 3000.00],
                     [ 3.45221464E+00, -2.95124034E-04,  7.39418622E-07,
                      -2.89309866E-10,  3.53041498E-14,  3.45751599E+03,
                       1.85813897E+00])))

species(name='disub_c4ether',
        atoms='C:4 H:8 O:2',
        thermo=(NASA([10.00, 413.50],
                     [ 3.78241323E+00,  1.89501763E-02,  8.65302396E-05,
                      -1.80580575E-07,  1.13656264E-10, -3.85028536E+04,
                       1.09982450E+01]),
                NASA([413.50, 3000.00],
                     [ 4.29420885E-01,  5.13851903E-02, -3.11292293E-05,
                       9.11498284E-09, -1.03192718E-12, -3.82255592E+04,
                       2.42134976E+01])))

species(name='H2O',
        atoms='H:2 O:1',
        thermo=(NASA([10.00, 773.84],
                     [ 4.00473541E+00, -2.39729134E-04,  8.11862955E-07,
                       1.47891862E-09, -1.19783539E-12, -3.03533807E+04,
                      -9.96254147E-02]),
                NASA([773.84, 3000.00],
                     [ 3.52133374E+00,  1.05377009E-03,  6.40722099E-07,
                      -3.86240235E-10,  5.49243294E-14, -3.02424794E+04,
                       2.34173094E+00])))

species(name='disub_epoxy',
        atoms='C:4 H:8 O:2',
        thermo=(NASA([10.00, 549.41],
                     [ 3.89863211E+00,  5.97532637E-03,  1.66685676E-04,
                      -3.10743768E-07,  1.78330192E-10, -3.51488797E+04,
                       1.13847308E+01]),
                NASA([549.41, 3000.00],
                     [-6.40277648E-01,  6.05960003E-02, -4.13427220E-05,
                       1.31555461E-08, -1.57685017E-12, -3.49757628E+04,
                       2.76005436E+01])))

species(name='gQOOHa',
        atoms='C:4 H:9 O:3',
        thermo=(NASA([10.00, 160.74],
                     [ 3.80808147E+00,  2.31043884E-02,  5.26945984E-04,
                      -3.11500696E-06,  6.03881958E-09, -2.55756588E+04,
                       1.17645316E+01]),
                NASA([160.74, 3000.00],
                     [ 2.90630300E+00,  6.50241173E-02, -4.60073244E-05,
                       1.51330930E-08, -1.87074267E-12, -2.55718342E+04,
                       1.36838819E+01])))

species(name='propene1ol',
        atoms='C:3 H:6 O:1',
        thermo=(NASA([10.00, 459.42],
                     [ 3.91245344E+00,  5.85800161E-03,  1.15412006E-04,
                      -2.68014417E-07,  1.91800131E-10, -1.98011877E+04,
                       8.14807684E+00]),
                NASA([459.42, 3000.00],
                     [ 3.14049093E+00,  2.95550898E-02, -1.73843684E-05,
                       5.11506211E-09, -5.92966137E-13, -1.99094102E+04,
                       9.32215170E+00])))

species(name='gQOOHb',
        atoms='C:4 H:9 O:3',
        thermo=(NASA([10.00, 1018.67],
                     [ 3.99028351E+00,  4.29665712E-02,  2.28338778E-05,
                      -5.67914439E-08,  2.29383258E-11, -2.36410675E+04,
                       1.20326731E+01]),
                NASA([1018.67, 3000.00],
                     [ 1.38304153E+01,  3.88527019E-02, -2.19473905E-05,
                       5.78719895E-09, -5.85097740E-13, -2.74371523E+04,
                      -4.44147388E+01])))

species(name='ipropylOOH',
        atoms='C:3 H:7 O:2',
        thermo=(NASA([10.00, 405.01],
                     [ 3.30075623E+00,  7.58672756E-02, -3.35754269E-04,
                       8.05972164E-07, -6.68864582E-10, -1.64582856E+02,
                       1.43372849E+01]),
                NASA([405.01, 3000.00],
                     [ 2.51742509E+00,  3.72760950E-02, -2.12450220E-05,
                       5.83593926E-09, -6.22110649E-13,  2.78824751E+02,
                       2.20991392E+01])))

species(name='galdoxy',
        atoms='C:4 H:7 O:2',
        thermo=(NASA([10.00, 209.62],
                     [ 3.82641108E+00,  1.84758886E-02,  3.43073800E-04,
                      -1.82817005E-06,  2.98516720E-09, -1.63148649E+04,
                       1.17972706E+01]),
                NASA([209.62, 3000.00],
                     [ 4.22049016E+00,  4.03370149E-02, -2.36129482E-05,
                       6.72979114E-09, -7.47862493E-13, -1.63959346E+04,
                       8.97211724E+00])))

species(name='galkene',
        atoms='C:4 H:8 O:1',
        thermo=(NASA([10.00, 383.47],
                     [ 3.84035604E+00,  1.20378740E-02,  1.87486319E-04,
                      -5.44759148E-07,  4.80711015E-10, -2.32853764E+04,
                       1.02570291E+01]),
                NASA([383.47, 3000.00],
                     [ 4.00413385E+00,  3.79025144E-02, -2.15435710E-05,
                       6.15213311E-09, -6.97446345E-13, -2.35006657E+04,
                       6.98052628E+00])))

species(name='CH2O',
        atoms='C:1 H:2 O:1',
        thermo=(NASA([10.00, 601.31],
                     [ 4.03190845E+00, -1.93233367E-03,  8.89743345E-06,
                       2.98105926E-09, -7.90813886E-12, -1.42276270E+04,
                       3.47574660E+00]),
                NASA([601.31, 3000.00],
                     [ 1.40134195E+00,  9.48858016E-03, -4.43088317E-06,
                       9.48452194E-10, -7.43790219E-14, -1.38013869E+04,
                       1.57423780E+01])))

species(name='O2',
        atoms='O:2',
        thermo=(NASA([10.00, 605.96],
                     [ 3.50743498E+00, -4.43860349E-04,  1.45938058E-06,
                       1.61509333E-09, -2.32050052E-12, -9.24756224E+02,
                       4.72183634E+00]),
                NASA([605.96, 3000.00],
                     [ 2.87462882E+00,  2.17840991E-03, -1.18262921E-06,
                       2.86910493E-10, -2.53297146E-14, -8.19517838E+02,
                       7.69331810E+00])))

species(name='gRO2',
        atoms='C:4 H:9 O:3',
        thermo=(NASA([10.00, 177.33],
                     [ 3.70632176E+00,  3.49733664E-02,  4.64036392E-04,
                      -3.18637835E-06,  6.38178607E-09, -2.83414676E+04,
                       1.24459269E+01]),
                NASA([177.33, 3000.00],
                     [ 4.82062697E+00,  5.17179689E-02, -3.18386818E-05,
                       9.52247045E-09, -1.10180288E-12, -2.84468382E+04,
                       7.14082953E+00])))

species(name='gQOOHg',
        atoms='C:4 H:9 O:3',
        thermo=(NASA([10.00, 475.03],
                     [ 3.42273720E+00,  4.98344215E-02,  6.47820920E-05,
                      -2.49842966E-07,  1.98636537E-10, -2.04370243E+04,
                       1.41578583E+01]),
                NASA([475.03, 3000.00],
                     [ 5.94049074E+00,  5.53778585E-02, -3.71708255E-05,
                       1.17540477E-08, -1.40812095E-12, -2.09779786E+04,
                       7.09201218E-01])))

species(name='gR',
        atoms='C:4 H:9 O:1',
        thermo=(NASA([10.00, 638.24],
                     [ 3.37074633E+00,  5.17529751E-02, -6.54872940E-05,
                       6.88084237E-08, -3.21569794E-11, -9.38304633E+03,
                       1.14339669E+01]),
                NASA([638.24, 3000.00],
                     [ 3.99410860E+00,  4.06314915E-02, -2.23932510E-05,
                       6.08356263E-09, -6.49884708E-13, -9.31567161E+03,
                       9.85769960E+00])))

species(name='galdol',
        atoms='C:4 H:8 O:2',
        thermo=(NASA([10.00, 506.68],
                     [ 3.85380874E+00,  9.21272695E-03,  1.86712348E-04,
                      -3.96417049E-07,  2.55528268E-10, -4.65798805E+04,
                       1.24312743E+01]),
                NASA([506.68, 3000.00],
                     [ 1.49710213E+00,  5.65979142E-02, -3.87709084E-05,
                       1.23682052E-08, -1.48287964E-12, -4.67104898E+04,
                       1.85531759E+01])))

species(name='monosub_c4ether',
        atoms='C:4 H:8 O:2',
        thermo=(NASA([10.00, 380.36],
                     [ 3.47743996E+00,  6.08051311E-02, -2.78518945E-04,
                       8.23182713E-07, -7.87158031E-10, -3.43037791E+04,
                       1.06415154E+01]),
                NASA([380.36, 3000.00],
                     [-1.09346901E+00,  5.35985968E-02, -3.21081420E-05,
                       9.20818293E-09, -1.01830294E-12, -3.35562191E+04,
                       3.35312368E+01])))

species(name='HO2',
        atoms='H:1 O:2',
        thermo=(NASA([10.00, 891.11],
                     [ 4.02887004E+00, -1.75769289E-03,  1.08726004E-05,
                      -1.13812972E-08,  3.90113097E-12,  4.95165001E+02,
                       4.69302008E+00]),
                NASA([891.11, 3000.00],
                     [ 3.06571044E+00,  4.28505005E-03, -2.19325920E-06,
                       5.58882699E-10, -5.61246669E-14,  5.98557610E+02,
                       8.84564156E+00])))

species(name='gQOOH[O]',
        atoms='C:4 H:9 O:3',
        thermo=(NASA([10.00, 535.23],
                     [ 3.83107445E+00,  1.02302002E-02,  2.29377261E-04,
                      -4.59095575E-07,  2.77765018E-10, -1.81306453E+04,
                       1.41034859E+01]),
                NASA([535.23, 3000.00],
                     [-4.19283096E-01,  7.69784620E-02, -5.57279000E-05,
                       1.81378295E-08, -2.18295635E-12, -1.81767587E+04,
                       2.72711816E+01])))

#-------------------------------------------------------------------------------
# Reaction data
#-------------------------------------------------------------------------------

# Reaction 1
chebyshev_reaction('gQOOH[O] (+ M) <=> gRO2 (+ M)',
                   Tmin=180.0, Tmax=1500.0,
                   Pmin=(0.01, 'atm'), Pmax=(98.692, 'atm'),
                   coeffs=[[ 9.58600e+00,  1.69400e+00, -2.29500e-01, -4.94600e-02, -3.63200e-03,  6.02400e-03,  1.99500e-03, -2.43600e-04],
                           [-7.78500e-01,  3.83900e-01,  5.23300e-02,  2.87700e-02, -1.32200e-02, -6.30800e-03, -2.99200e-05,  1.03600e-03],
                           [-5.42800e-01,  1.53700e-01, -5.17800e-03,  2.60600e-02,  4.05800e-03, -2.08900e-03, -1.54600e-03, -3.95500e-04],
                           [-3.43800e-01,  9.77500e-02, -1.05400e-02,  1.22800e-02,  5.21800e-03, -1.52800e-04, -6.29600e-04, -4.37600e-04],
                           [-2.14800e-01,  7.63500e-02, -4.22300e-03,  4.40100e-03,  2.96200e-03, -1.75300e-04, -8.90600e-05, -8.26800e-05],
                           [-1.18200e-01,  4.67500e-02, -4.52200e-03,  1.22800e-03,  2.13900e-03, -1.08900e-04, -8.26300e-05,  1.74800e-05],
                           [-5.68400e-02,  2.70600e-02, -5.99700e-03, -1.10500e-03,  1.48500e-03,  2.43700e-04, -5.21100e-05, -9.06400e-06],
                           [-2.04100e-02,  1.27800e-02, -5.06500e-03, -1.57300e-03,  5.90000e-04,  1.91500e-04,  5.83100e-05,  4.03000e-05],
                           [-3.81400e-03,  7.43900e-03, -4.06300e-03, -2.17700e-03,  3.90600e-04,  3.61100e-04, -1.49900e-05, -3.05300e-05],
                           [ 1.16500e-03,  3.10700e-03, -7.23300e-04, -1.31600e-03, -2.42600e-04,  3.73400e-05,  6.27900e-05,  4.58100e-05]])

# Reaction 2
chebyshev_reaction('gQOOHa (+ M) <=> gRO2 (+ M)',
                   Tmin=180.0, Tmax=1500.0,
                   Pmin=(0.01, 'atm'), Pmax=(98.692, 'atm'),
                   coeffs=[[ 5.27200e+00,  3.33400e-01, -1.06500e-01,  8.17700e-03,  2.64900e-03,  8.55400e-05, -1.19400e-04, -5.39700e-05],
                           [ 2.66400e+00,  6.02100e-01, -1.84500e-01,  9.75100e-03,  5.64900e-03,  3.31900e-04, -2.54100e-04, -1.12300e-04],
                           [ 3.49600e-01,  4.43100e-01, -1.17200e-01, -4.14100e-03,  5.66300e-03,  8.21400e-04, -2.64900e-04, -1.29200e-04],
                           [-2.34000e-01,  2.65600e-01, -4.88500e-02, -1.40800e-02,  3.86300e-03,  1.45400e-03, -1.83000e-04, -1.59700e-04],
                           [-1.77900e-01,  1.30400e-01, -6.11400e-03, -1.45200e-02,  6.62100e-04,  1.75000e-03,  4.53900e-05, -1.82500e-04],
                           [-6.27800e-02,  5.42400e-02,  8.60600e-03, -8.58400e-03, -1.97500e-03,  1.36900e-03,  3.35300e-04, -1.57800e-04],
                           [-2.01700e-02,  2.15300e-02,  7.76100e-03, -2.39000e-03, -2.71100e-03,  5.16500e-04,  5.04800e-04, -6.95400e-05],
                           [-1.28400e-02,  9.98400e-03,  3.43800e-03,  7.79000e-04, -1.89000e-03, -2.53800e-04,  4.47300e-04,  4.47900e-05],
                           [-8.83200e-03,  5.54000e-03,  8.26700e-04,  1.26100e-03, -6.95000e-04, -5.72300e-04,  2.29500e-04,  1.21100e-04],
                           [-4.27600e-03,  2.92300e-03,  1.36900e-04,  6.83500e-04,  6.53100e-05, -4.80900e-04,  9.91200e-06,  1.25600e-04]])

# Reaction 3
chebyshev_reaction('gQOOHg (+ M) <=> gRO2 (+ M)',
                   Tmin=180.0, Tmax=1500.0,
                   Pmin=(0.01, 'atm'), Pmax=(98.692, 'atm'),
                   coeffs=[[ 6.97800e+00,  3.59500e-01, -1.39600e-01,  2.33200e-02,  2.02000e-03, -1.18600e-03, -1.67700e-04,  1.37400e-04],
                           [ 1.67900e+00,  6.20400e-01, -2.27500e-01,  2.92700e-02,  7.27200e-03, -2.44600e-03, -4.11000e-04,  2.61000e-04],
                           [ 7.60300e-02,  4.11600e-01, -1.24500e-01, -4.58800e-04,  1.02300e-02, -1.35700e-03, -7.60400e-04,  2.21100e-04],
                           [-2.02100e-01,  2.22800e-01, -4.24700e-02, -1.62400e-02,  7.70700e-03,  6.83700e-04, -9.35000e-04,  5.34800e-05],
                           [-1.18600e-01,  1.09100e-01, -4.97800e-03, -1.51100e-02,  2.35400e-03,  1.98700e-03, -5.83400e-04, -1.82600e-04],
                           [-4.91000e-02,  5.43300e-02,  4.34800e-03, -8.23600e-03, -1.23000e-03,  1.78300e-03,  2.88600e-05, -2.98900e-04],
                           [-2.63700e-02,  2.86400e-02,  4.49700e-03, -3.25600e-03, -2.01400e-03,  8.25900e-04,  4.21300e-04, -2.24400e-04],
                           [-1.74200e-02,  1.52900e-02,  3.32000e-03, -1.01800e-03, -1.44500e-03,  5.54800e-05,  4.47400e-04, -6.42900e-05],
                           [-1.02400e-02,  7.61600e-03,  2.43100e-03, -2.36500e-04, -7.56300e-04, -2.54000e-04,  2.74900e-04,  5.47700e-05],
                           [-4.87200e-03,  2.66700e-03,  2.08100e-03, -1.04200e-04, -2.86500e-04, -2.75900e-04,  9.89100e-05,  9.19200e-05]])

# Reaction 4
chebyshev_reaction('gQOOHb (+ M) <=> gRO2 (+ M)',
                   Tmin=180.0, Tmax=1500.0,
                   Pmin=(0.01, 'atm'), Pmax=(98.692, 'atm'),
                   coeffs=[[ 6.39000e+00,  7.65700e-01, -7.39000e-02, -5.65900e-03, -1.01500e-03, -5.05500e-05, -3.99700e-06, -5.44400e-07],
                           [ 3.84400e-01,  1.21500e+00, -9.98800e-02, -6.58000e-03, -2.07600e-03, -6.70700e-04,  4.07500e-05, -2.68500e-06],
                           [-1.52400e-01,  5.77200e-01, -2.62400e-02,  8.23200e-03, -2.06100e-03, -1.43300e-03, -4.42900e-05,  1.08400e-05],
                           [-1.14900e-01,  1.05400e-01, -2.46900e-03,  1.88200e-02,  4.55700e-04, -1.44800e-03, -2.86600e-04, -1.25000e-05],
                           [-2.57300e-02, -4.95100e-02, -1.29400e-02,  1.30900e-02,  3.77400e-03, -3.62100e-04, -4.17100e-04, -8.08900e-05],
                           [-6.14900e-03, -2.70400e-02, -1.77800e-02, -4.15700e-04,  4.24900e-03,  8.10700e-04, -2.19000e-04, -1.05100e-04],
                           [-1.82900e-02,  2.03400e-02, -1.13200e-02, -7.77300e-03,  2.24100e-03,  9.45500e-04,  7.89600e-05, -3.10000e-05],
                           [-2.52300e-02,  3.70500e-02, -4.41700e-03, -6.79600e-03,  4.49600e-04,  3.37700e-04,  1.53300e-04,  5.19500e-05],
                           [-2.00700e-02,  2.84200e-02, -1.13600e-03, -3.05000e-03, -1.94700e-04, -8.12100e-05,  4.49600e-05,  4.93100e-05],
                           [-9.82600e-03,  1.24400e-02,  3.45600e-04, -4.82100e-04, -3.56700e-04, -5.19800e-05, -3.02200e-05, -5.58400e-06]])

# Reaction 5
chebyshev_reaction('O2 + gR (+ M) <=> gRO2 (+ M)',
                   Tmin=180.0, Tmax=1500.0,
                   Pmin=(0.01, 'atm'), Pmax=(98.692, 'atm'),
                   coeffs=[[ 1.16800e+01,  2.97800e-01, -1.34400e-01,  3.73300e-02, -6.63100e-03,  5.40500e-04,  3.67000e-04, -2.50600e-04],
                           [-8.03800e-01,  3.10700e-01, -9.68100e-02, -3.18700e-04,  9.33700e-03, -2.52300e-03,  1.95200e-04,  7.43800e-05],
                           [-2.99500e-01,  1.68700e-01, -2.98300e-02, -1.63600e-02,  8.04200e-03,  1.23400e-04, -8.47900e-04,  2.37200e-04],
                           [-1.52000e-01,  1.22200e-01, -2.00300e-02, -1.06700e-02,  3.74700e-03,  8.56300e-04, -4.95300e-04,  5.24800e-07],
                           [-9.07700e-02,  8.73800e-02, -1.38100e-02, -6.70400e-03,  1.77300e-03,  6.45400e-04, -1.25900e-04, -8.12100e-05],
                           [-5.10900e-02,  5.00900e-02, -3.89500e-03, -5.57500e-03,  7.31400e-04,  6.24700e-04, -6.05100e-05, -5.80000e-05],
                           [-2.65200e-02,  2.40400e-02,  1.81800e-03, -4.07700e-03, -7.50300e-05,  5.85100e-04, -1.98200e-05, -4.60700e-05],
                           [-1.31800e-02,  1.03600e-02,  3.06100e-03, -2.34400e-03, -4.41400e-04,  3.83200e-04,  4.22300e-05, -3.39300e-05],
                           [-5.90800e-03,  3.41500e-03,  2.65800e-03, -1.04200e-03, -4.94200e-04,  1.78300e-04,  6.81800e-05, -1.39200e-05],
                           [-1.48700e-03, -7.16900e-04,  2.17700e-03, -2.60700e-04, -4.52700e-04,  5.66100e-05,  6.54100e-05, -2.03700e-06]])
#  gRO2(+M) <=> gQOOH[O](+M)                           1.000e+00 0.000     0.000
#      TCHEB/ 180.000   1500.000 /
#      PCHEB/ 0.010     98.692   /
#      CHEB/ 10 8/
#      CHEB/ -4.696e+00   1.694e+00    -2.295e-01   -4.946e-02   -3.632e-03  /
#      CHEB/ 6.024e-03    1.995e-03    -2.436e-04   9.797e+00    3.839e-01   /
#      CHEB/ 5.233e-02    2.877e-02    -1.322e-02   -6.308e-03   -2.992e-05  /
#      CHEB/ 1.036e-03    -3.698e-01   1.537e-01    -5.178e-03   2.606e-02   /
#      CHEB/ 4.058e-03    -2.089e-03   -1.546e-03   -3.955e-04   -2.190e-01  /
#      CHEB/ 9.775e-02    -1.054e-02   1.228e-02    5.218e-03    -1.528e-04  /
#      CHEB/ -6.296e-04   -4.376e-04   -1.611e-01   7.635e-02    -4.223e-03  /
#      CHEB/ 4.401e-03    2.962e-03    -1.753e-04   -8.906e-05   -8.268e-05  /
#      CHEB/ -9.915e-02   4.675e-02    -4.522e-03   1.228e-03    2.139e-03   /
#      CHEB/ -1.089e-04   -8.263e-05   1.748e-05    -5.062e-02   2.706e-02   /
#      CHEB/ -5.997e-03   -1.105e-03   1.485e-03    2.437e-04    -5.211e-05  /
#      CHEB/ -9.064e-06   -1.849e-02   1.278e-02    -5.065e-03   -1.573e-03  /
#      CHEB/ 5.900e-04    1.915e-04    5.831e-05    4.030e-05    -3.352e-03  /
#      CHEB/ 7.439e-03    -4.063e-03   -2.177e-03   3.906e-04    3.611e-04   /
#      CHEB/ -1.499e-05   -3.053e-05   1.136e-03    3.107e-03    -7.233e-04  /
#      CHEB/ -1.316e-03   -2.426e-04   3.734e-05    6.279e-05    4.581e-05   /

# Reaction 6
chebyshev_reaction('gQOOHa (+ M) <=> gQOOH[O] (+ M)',
                   Tmin=180.0, Tmax=1500.0,
                   Pmin=(0.01, 'atm'), Pmax=(98.692, 'atm'),
                   coeffs=[[-4.21000e+00,  1.18900e-01, -3.37000e-01, -3.65600e-02, -3.59800e-03,  5.59600e-03,  2.14200e-03, -6.04500e-05],
                           [ 7.81500e+00,  9.82500e-01, -1.14300e-01,  3.63100e-02, -5.24700e-04, -6.80000e-03, -1.07700e-03,  7.35000e-04],
                           [-4.04400e-01,  4.96700e-01, -4.92200e-02,  5.47300e-04,  1.33800e-02, -1.44800e-04, -2.06800e-03, -6.05900e-04],
                           [-2.74000e-01,  2.35900e-01,  1.29900e-02, -1.64900e-02,  5.66400e-03,  3.38000e-03, -7.28700e-04, -6.15600e-04],
                           [-1.30100e-01,  1.11700e-01,  2.28800e-02, -1.12600e-02, -2.15100e-03,  2.92800e-03,  5.05300e-04, -3.90500e-04],
                           [-4.69500e-02,  5.39000e-02,  6.01700e-03, -3.67000e-03, -3.41900e-03,  1.16200e-03,  1.05000e-03, -1.71700e-04],
                           [-1.68900e-02,  3.11500e-02, -5.13800e-03, -1.41700e-03, -1.97600e-03, -1.68500e-04,  9.21500e-04,  1.03300e-04],
                           [-2.14800e-03,  1.86600e-02, -5.12200e-03, -1.15600e-03, -8.20500e-04, -7.35400e-04,  4.38100e-04,  2.85400e-04],
                           [ 3.10900e-03,  8.87200e-03, -2.27600e-03, -1.10800e-03, -4.57900e-05, -5.01500e-04, -3.63700e-05,  2.02200e-04],
                           [-4.03100e-03,  4.47900e-03,  1.74500e-03, -5.52300e-04, -2.11000e-04, -3.70800e-04, -1.39100e-04,  1.28800e-04]])

# Reaction 7
chebyshev_reaction('gQOOHg (+ M) <=> gQOOH[O] (+ M)',
                   Tmin=180.0, Tmax=1500.0,
                   Pmin=(0.01, 'atm'), Pmax=(98.692, 'atm'),
                   coeffs=[[-1.66400e-01,  1.47200e-01, -3.48100e-01, -2.26100e-02, -6.90200e-03,  3.84200e-03,  2.57700e-03,  2.55400e-04],
                           [ 4.07400e+00,  9.18400e-01, -1.41300e-01,  5.57800e-02,  5.16600e-03, -9.34500e-03, -1.74500e-03,  7.21100e-04],
                           [-1.67700e-01,  4.69400e-01, -5.18000e-02,  3.66700e-03,  1.73000e-02, -1.90700e-03, -2.49300e-03, -1.93600e-04],
                           [-2.50900e-01,  2.25100e-01,  5.67600e-03, -1.73000e-02,  9.74700e-03,  2.52000e-03, -1.53500e-03, -2.87500e-04],
                           [-1.00800e-01,  1.15400e-01,  7.47900e-03, -1.32300e-02,  1.27200e-03,  3.19300e-03, -2.28600e-04, -3.78300e-04],
                           [-2.40300e-02,  6.23500e-02, -3.83700e-03, -7.19800e-03, -1.75800e-03,  1.94500e-03,  6.86700e-04, -3.15800e-04],
                           [-6.13200e-03,  3.31300e-02, -5.29200e-03, -4.58500e-03, -1.90500e-03,  5.67800e-04,  8.16700e-04, -7.55200e-05],
                           [ 7.54400e-04,  1.78700e-02, -4.97100e-04, -2.80200e-03, -1.59900e-03, -2.36200e-04,  5.02300e-04,  1.12500e-04],
                           [ 1.57200e-03,  7.00400e-03,  1.76200e-03, -9.68400e-04, -9.85200e-04, -3.19200e-04,  1.42500e-04,  1.12700e-04],
                           [-6.84500e-03,  3.13800e-03,  4.91000e-03, -4.24800e-04, -6.25700e-04, -4.11100e-04,  2.20300e-06,  1.14800e-04]])

# Reaction 8
chebyshev_reaction('gQOOHb (+ M) <=> gQOOH[O] (+ M)',
                   Tmin=180.0, Tmax=1500.0,
                   Pmin=(0.01, 'atm'), Pmax=(98.692, 'atm'),
                   coeffs=[[-3.38700e+00,  1.14100e+00, -4.43000e-01, -5.80500e-02,  4.86600e-03,  4.45700e-03,  1.15600e-03,  2.45900e-04],
                           [ 5.50800e+00,  1.11500e+00,  1.91200e-01,  4.92200e-03, -2.78400e-02, -3.32200e-03,  1.04500e-03,  1.03300e-04],
                           [-3.24600e-01,  2.61500e-01,  4.52900e-02,  5.44400e-02,  5.58400e-03, -6.69600e-03, -1.98000e-03,  5.30300e-05],
                           [-1.99600e-01,  8.89400e-02, -2.12900e-02,  2.08200e-02,  1.48800e-02, -2.83500e-05, -1.93100e-03, -6.07100e-04],
                           [-1.06600e-01,  7.83200e-02, -2.12200e-02, -4.25100e-03,  6.80200e-03,  2.26200e-03,  5.37400e-05, -3.62400e-04],
                           [-5.11200e-02,  5.96900e-02, -1.28400e-02, -8.41800e-03,  1.02700e-03,  1.13600e-03,  5.85100e-04,  1.11300e-04],
                           [-1.36400e-02,  3.40700e-02, -8.08300e-03, -5.56100e-03, -3.72300e-04,  2.13600e-04,  2.45700e-04,  1.81200e-04],
                           [ 6.68100e-03,  1.53600e-02, -4.30700e-03, -3.01900e-03, -3.47900e-04,  5.51500e-05,  8.47600e-06,  5.49700e-05],
                           [ 5.01600e-03,  6.68500e-03, -2.57900e-03, -2.24200e-03,  2.28900e-04,  2.66200e-04, -1.17600e-04, -5.04400e-05],
                           [ 2.26000e-04,  2.09500e-03,  1.84000e-03, -1.38400e-03, -4.90100e-04,  1.66100e-04,  7.79800e-05, -2.75300e-05]])

# Reaction 9
chebyshev_reaction('O2 + gR (+ M) <=> gQOOH[O] (+ M)',
                   Tmin=180.0, Tmax=1500.0,
                   Pmin=(0.01, 'atm'), Pmax=(98.692, 'atm'),
                   coeffs=[[ 6.73100e+00,  6.29300e-02, -2.96100e-01, -1.71600e-02, -1.38500e-02,  4.25800e-03,  3.00500e-03,  8.71200e-07],
                           [-6.78500e-01,  5.49900e-01,  1.05900e-02,  2.86000e-02,  9.62100e-03, -7.93900e-03, -2.18200e-03,  1.43100e-04],
                           [-4.66800e-01,  2.56800e-01,  2.22100e-02, -2.53600e-03,  1.13700e-02,  5.30600e-07, -2.02400e-03, -1.28500e-04],
                           [-1.44600e-01,  1.31500e-01, -1.17300e-02, -7.97600e-03,  6.74000e-03,  2.65500e-03, -4.24300e-04, -2.93900e-04],
                           [-1.59100e-02,  8.45400e-02, -1.82200e-02, -9.10900e-03,  2.22800e-03,  1.63900e-03,  3.77000e-04, -3.06400e-05],
                           [ 1.79700e-02,  4.64100e-02, -8.40500e-03, -8.45800e-03, -9.57700e-05,  8.59300e-04,  2.75800e-04,  6.67500e-05],
                           [ 7.04700e-03,  2.06600e-02,  1.87500e-04, -5.56900e-03, -9.92400e-04,  5.15300e-04,  7.86200e-05,  1.65100e-06],
                           [ 1.86300e-03,  1.05900e-02,  4.50500e-03, -2.58300e-03, -1.20500e-03,  1.55200e-04,  3.55300e-05, -1.38400e-05],
                           [ 4.47400e-04,  1.48400e-03,  3.36600e-03, -7.47700e-04, -6.23100e-04,  1.12200e-04,  3.05500e-05, -3.91600e-05],
                           [-6.13100e-03,  9.33300e-04,  3.83400e-03,  1.64800e-04, -6.64300e-04, -9.70400e-05,  5.17600e-05,  1.66200e-05]])
#  gRO2(+M) <=> gQOOHa(+M)                             1.000e+00 0.000     0.000
#      TCHEB/ 180.000   1500.000 /
#      PCHEB/ 0.010     98.692   /
#      CHEB/ 10 8/
#      CHEB/ 1.226e+00    3.334e-01    -1.065e-01   8.177e-03    2.649e-03   /
#      CHEB/ 8.554e-05    -1.194e-04   -5.397e-05   5.820e+00    6.021e-01   /
#      CHEB/ -1.845e-01   9.751e-03    5.649e-03    3.319e-04    -2.541e-04  /
#      CHEB/ -1.123e-04   5.114e-01    4.431e-01    -1.172e-01   -4.141e-03  /
#      CHEB/ 5.663e-03    8.214e-04    -2.649e-04   -1.292e-04   -1.599e-01  /
#      CHEB/ 2.656e-01    -4.885e-02   -1.408e-02   3.863e-03    1.454e-03   /
#      CHEB/ -1.830e-04   -1.597e-04   -1.493e-01   1.304e-01    -6.114e-03  /
#      CHEB/ -1.452e-02   6.621e-04    1.750e-03    4.539e-05    -1.825e-04  /
#      CHEB/ -5.299e-02   5.424e-02    8.606e-03    -8.584e-03   -1.975e-03  /
#      CHEB/ 1.369e-03    3.353e-04    -1.578e-04   -1.726e-02   2.153e-02   /
#      CHEB/ 7.761e-03    -2.390e-03   -2.711e-03   5.165e-04    5.048e-04   /
#      CHEB/ -6.954e-05   -1.221e-02   9.984e-03    3.438e-03    7.790e-04   /
#      CHEB/ -1.890e-03   -2.538e-04   4.473e-04    4.479e-05    -8.835e-03  /
#      CHEB/ 5.540e-03    8.267e-04    1.261e-03    -6.950e-04   -5.723e-04  /
#      CHEB/ 2.295e-04    1.211e-04    -4.394e-03   2.923e-03    1.369e-04   /
#      CHEB/ 6.835e-04    6.531e-05    -4.809e-04   9.912e-06    1.256e-04   /
#  gQOOH[O](+M) <=> gQOOHa(+M)                         1.000e+00 0.000     0.000
#      TCHEB/ 180.000   1500.000 /
#      PCHEB/ 0.010     98.692   /
#      CHEB/ 10 8/
#      CHEB/ 6.027e+00    1.189e-01    -3.370e-01   -3.656e-02   -3.598e-03  /
#      CHEB/ 5.596e-03    2.142e-03    -6.045e-05   3.949e-01    9.825e-01   /
#      CHEB/ -1.143e-01   3.631e-02    -5.247e-04   -6.800e-03   -1.077e-03  /
#      CHEB/ 7.350e-04    -4.158e-01   4.967e-01    -4.922e-02   5.473e-04   /
#      CHEB/ 1.338e-02    -1.448e-04   -2.068e-03   -6.059e-04   -3.246e-01  /
#      CHEB/ 2.359e-01    1.299e-02    -1.649e-02   5.664e-03    3.380e-03   /
#      CHEB/ -7.287e-04   -6.156e-04   -1.552e-01   1.117e-01    2.288e-02   /
#      CHEB/ -1.126e-02   -2.151e-03   2.928e-03    5.053e-04    -3.905e-04  /
#      CHEB/ -5.621e-02   5.390e-02    6.017e-03    -3.670e-03   -3.419e-03  /
#      CHEB/ 1.162e-03    1.050e-03    -1.717e-04   -2.020e-02   3.115e-02   /
#      CHEB/ -5.138e-03   -1.417e-03   -1.976e-03   -1.685e-04   9.215e-04   /
#      CHEB/ 1.033e-04    -3.436e-03   1.866e-02    -5.122e-03   -1.156e-03  /
#      CHEB/ -8.205e-04   -7.354e-04   4.381e-04    2.854e-04    2.644e-03   /
#      CHEB/ 8.872e-03    -2.276e-03   -1.108e-03   -4.579e-05   -5.015e-04  /