units(length='cm', time='s', quantity='mol', act_energy='kcal/mol')

ideal_gas(name='gas',
          elements="H D T C Ci O Oi N Ne Ar He Si S F Cl Br I X",
          species="""OH             bQOOH[O]       acetone
                     H2O            balkoxyketone  ibutenol
                     trisub_epoxy   bQOOHg         CH2O
                     galkene        O2             bR
                     bQOOHa         bRO2           disub_epoxy
                     HO2""",
          reactions='all',
          initial_state=state(temperature=300.0, pressure=OneAtm))

#-------------------------------------------------------------------------------
# Element data
#-------------------------------------------------------------------------------

element(symbol='Ci', atomic_mass=13.003)
element(symbol='D', atomic_mass=2.014)
element(symbol='Oi', atomic_mass=18.0)
element(symbol='T', atomic_mass=3.016)
element(symbol='X', atomic_mass=195.083)
#-------------------------------------------------------------------------------
# Species data
#-------------------------------------------------------------------------------

species(name='OH',
        atoms='H:1 O:1',
        thermo=(NASA([10.00, 984.14],
                     [ 3.49686242E+00,  1.83973160E-04, -9.97634499E-07,
                       1.56942783E-09, -6.10128175E-13,  3.41673934E+03,
                       1.48093120E+00]),
                NASA([984.14, 3000.00],
                     [ 3.45221464E+00, -2.95124034E-04,  7.39418622E-07,
                      -2.89309866E-10,  3.53041498E-14,  3.45751599E+03,
                       1.85813897E+00])))

species(name='bQOOH[O]',
        atoms='C:4 H:9 O:3',
        thermo=(NASA([10.00, 338.69],
                     [ 3.60915854E+00,  3.39069566E-02,  2.22227265E-04,
                      -8.23527342E-07,  8.56246333E-10, -2.34404984E+04,
                       1.23284605E+01]),
                NASA([338.69, 3000.00],
                     [ 5.03198881E+00,  5.46235886E-02, -3.56935806E-05,
                       1.12371751E-08, -1.35390171E-12, -2.37520811E+04,
                       3.82760723E+00])))

species(name='acetone',
        atoms='C:3 H:6 O:1',
        thermo=(NASA([10.00, 414.35],
                     [ 3.73496166E+00,  3.05743218E-02, -1.26253585E-04,
                       3.66080978E-07, -3.31430437E-10, -2.71342085E+04,
                       8.24936012E+00]),
                NASA([414.35, 3000.00],
                     [ 1.70010292E-01,  3.28431468E-02, -1.80960132E-05,
                       4.82960690E-09, -5.02388538E-13, -2.65628254E+04,
                       2.56372653E+01])))

species(name='H2O',
        atoms='H:2 O:1',
        thermo=(NASA([10.00, 773.84],
                     [ 4.00473541E+00, -2.39729134E-04,  8.11862955E-07,
                       1.47891862E-09, -1.19783539E-12, -3.03533807E+04,
                      -9.96254147E-02]),
                NASA([773.84, 3000.00],
                     [ 3.52133374E+00,  1.05377009E-03,  6.40722099E-07,
                      -3.86240235E-10,  5.49243294E-14, -3.02424794E+04,
                       2.34173094E+00])))

species(name='balkoxyketone',
        atoms='C:4 H:7 O:2',
        thermo=(NASA([10.00, 269.93],
                     [ 3.81931151E+00,  1.68519318E-02,  2.42742224E-04,
                      -9.64821161E-07,  1.18509335E-09, -1.93630034E+04,
                       1.20521854E+01]),
                NASA([269.93, 3000.00],
                     [ 3.57555944E+00,  4.28868089E-02, -2.65390705E-05,
                       7.99659117E-09, -9.32983470E-13, -1.94315315E+04,
                       1.13957990E+01])))

species(name='ibutenol',
        atoms='C:4 H:8 O:1',
        thermo=(NASA([10.00, 135.97],
                     [ 3.95714996E+00,  5.72646980E-03,  4.63611760E-04,
                      -3.04137514E-06,  6.85019471E-09, -2.42990160E+04,
                       8.21931848E+00]),
                NASA([135.97, 3000.00],
                     [ 3.32467612E+00,  3.69033556E-02, -1.89960416E-05,
                       4.73417677E-09, -4.59705291E-13, -2.42934373E+04,
                       9.58133237E+00])))

species(name='trisub_epoxy',
        atoms='C:4 H:8 O:2',
        thermo=(NASA([10.00, 209.19],
                     [ 3.75295042E+00,  2.37546930E-02,  1.26610110E-04,
                      -4.78364365E-07,  5.79468168E-10, -4.22571755E+04,
                       1.12739684E+01]),
                NASA([209.19, 3000.00],
                     [ 2.64185254E+00,  4.50006531E-02, -2.57361066E-05,
                       7.15266054E-09, -7.72980731E-13, -4.22106899E+04,
                       1.48960343E+01])))

species(name='bQOOHg',
        atoms='C:4 H:9 O:3',
        thermo=(NASA([10.00, 441.09],
                     [ 3.56595280E+00,  3.36073467E-02,  2.03462772E-04,
                      -5.98977617E-07,  4.83271168E-10, -2.26164681E+04,
                       1.33537891E+01]),
                NASA([441.09, 3000.00],
                     [ 6.09031192E+00,  5.80517622E-02, -4.06392697E-05,
                       1.32574026E-08, -1.62501077E-12, -2.32996536E+04,
                      -1.97849715E+00])))

species(name='CH2O',
        atoms='C:1 H:2 O:1',
        thermo=(NASA([10.00, 601.31],
                     [ 4.03190845E+00, -1.93233367E-03,  8.89743345E-06,
                       2.98105926E-09, -7.90813886E-12, -1.42276270E+04,
                       3.47574660E+00]),
                NASA([601.31, 3000.00],
                     [ 1.40134195E+00,  9.48858016E-03, -4.43088317E-06,
                       9.48452194E-10, -7.43790219E-14, -1.38013869E+04,
                       1.57423780E+01])))

species(name='galkene',
        atoms='C:4 H:8 O:1',
        thermo=(NASA([10.00, 383.47],
                     [ 3.84035604E+00,  1.20378740E-02,  1.87486319E-04,
                      -5.44759148E-07,  4.80711015E-10, -1.92890685E+04,
                       1.02570291E+01]),
                NASA([383.47, 3000.00],
                     [ 4.00413385E+00,  3.79025144E-02, -2.15435710E-05,
                       6.15213311E-09, -6.97446345E-13, -1.95043578E+04,
                       6.98052628E+00])))

species(name='O2',
        atoms='O:2',
        thermo=(NASA([10.00, 605.96],
                     [ 3.50743498E+00, -4.43860349E-04,  1.45938058E-06,
                       1.61509333E-09, -2.32050052E-12, -9.24756224E+02,
                       4.72183634E+00]),
                NASA([605.96, 3000.00],
                     [ 2.87462882E+00,  2.17840991E-03, -1.18262921E-06,
                       2.86910493E-10, -2.53297146E-14, -8.19517838E+02,
                       7.69331810E+00])))

species(name='bR',
        atoms='C:4 H:9 O:1',
        thermo=(NASA([10.00, 483.43],
                     [ 3.38164846E+00,  5.97142637E-02, -1.58320095E-04,
                       3.04908893E-07, -2.13091806E-10, -1.31548295E+04,
                       1.09226843E+01]),
                NASA([483.43, 3000.00],
                     [ 2.33428824E+00,  4.22094427E-02, -2.28029290E-05,
                       6.04614564E-09, -6.30240159E-13, -1.27477475E+04,
                       1.83772893E+01])))

species(name='bQOOHa',
        atoms='C:4 H:9 O:3',
        thermo=(NASA([10.00, 390.53],
                     [ 3.54969236E+00,  3.76592474E-02,  1.76622653E-04,
                      -5.98063750E-07,  5.45069236E-10, -2.72299151E+04,
                       1.31518761E+01]),
                NASA([390.53, 3000.00],
                     [ 5.33564209E+00,  5.64935715E-02, -3.83214298E-05,
                       1.22990604E-08, -1.49549987E-12, -2.76525251E+04,
                       2.59015836E+00])))

species(name='bRO2',
        atoms='C:4 H:9 O:3',
        thermo=(NASA([10.00, 461.39],
                     [ 3.53964713E+00,  3.88723795E-02,  9.57420148E-05,
                      -2.80380499E-07,  2.09647462E-10, -3.22743286E+04,
                       1.18803618E+01]),
                NASA([461.39, 3000.00],
                     [ 3.47201723E+00,  6.00510247E-02, -4.00567321E-05,
                       1.25663813E-08, -1.49496682E-12, -3.24872754E+04,
                       9.77903975E+00])))

species(name='disub_epoxy',
        atoms='C:4 H:8 O:2',
        thermo=(NASA([10.00, 549.41],
                     [ 3.89863211E+00,  5.97532637E-03,  1.66685676E-04,
                      -3.10743768E-07,  1.78330192E-10, -3.74774342E+04,
                       1.13847308E+01]),
                NASA([549.41, 3000.00],
                     [-6.40277648E-01,  6.05960003E-02, -4.13427220E-05,
                       1.31555461E-08, -1.57685017E-12, -3.73043174E+04,
                       2.76005436E+01])))

species(name='HO2',
        atoms='H:1 O:2',
        thermo=(NASA([10.00, 891.11],
                     [ 4.02887004E+00, -1.75769289E-03,  1.08726004E-05,
                      -1.13812972E-08,  3.90113097E-12,  4.95165001E+02,
                       4.69302008E+00]),
                NASA([891.11, 3000.00],
                     [ 3.06571044E+00,  4.28505005E-03, -2.19325920E-06,
                       5.58882699E-10, -5.61246669E-14,  5.98557610E+02,
                       8.84564156E+00])))

#-------------------------------------------------------------------------------
# Reaction data
#-------------------------------------------------------------------------------

# Reaction 1
chebyshev_reaction('bQOOHg (+ M) <=> bRO2 (+ M)',
                   Tmin=180.0, Tmax=1500.0,
                   Pmin=(0.01, 'atm'), Pmax=(98.692, 'atm'),
                   coeffs=[[ 1.60200e+00,  7.35700e-01,  3.28300e-02, -1.13200e-03, -1.48300e-03,  4.04300e-04,  2.36500e-05,  3.19800e-05],
                           [-5.51900e+00,  1.00200e+00,  7.06300e-02, -9.22900e-04, -1.36000e-04, -4.02500e-05,  2.12000e-04,  1.06100e-06],
                           [-3.69200e+00,  1.59300e-01,  3.49500e-02,  8.32700e-03,  2.52700e-03, -3.83300e-04,  1.06300e-04, -4.18400e-05],
                           [-1.66600e+00, -2.17600e-01, -4.13000e-02,  1.09000e-02,  3.22800e-03,  1.48800e-04, -1.62800e-04, -4.79100e-05],
                           [-6.18000e-01, -7.10900e-02, -6.36200e-02, -2.51900e-03,  2.35600e-03,  4.33100e-04, -1.35500e-04,  7.43000e-07],
                           [-3.49400e-01,  8.64800e-02, -8.53500e-03, -1.02000e-02, -6.74100e-04,  8.36000e-05,  1.37100e-04,  8.55100e-05],
                           [-2.74000e-01,  1.31300e-02,  3.08600e-02,  1.91200e-03, -2.31200e-03, -5.12700e-04,  1.81400e-04,  7.73000e-05],
                           [-1.45200e-01, -9.54400e-02,  3.09900e-03,  1.12800e-02,  9.21000e-04, -5.68400e-04, -1.61800e-04, -5.55800e-05],
                           [-3.16400e-02, -6.37200e-02, -3.30800e-02,  9.42800e-04,  3.48500e-03,  3.09400e-04, -3.76500e-04, -1.17200e-04],
                           [ 5.86700e-03,  2.40400e-02, -2.05200e-02, -1.09600e-02,  1.89400e-06,  7.94800e-04,  3.85800e-05,  1.29500e-05]])

# Reaction 2
chebyshev_reaction('bQOOHa (+ M) <=> bRO2 (+ M)',
                   Tmin=180.0, Tmax=1500.0,
                   Pmin=(0.01, 'atm'), Pmax=(98.692, 'atm'),
                   coeffs=[[-6.67300e+00,  4.83200e+00,  1.46900e-01, -2.62500e-01, -5.60300e-02,  2.94500e-02,  1.52300e-02, -2.68500e-03],
                           [ 4.79100e-01, -2.54400e+00,  1.69500e-01,  3.78400e-01,  5.66400e-02, -4.15000e-02, -1.72000e-02,  4.28000e-03],
                           [-2.77500e+00, -7.01400e-02, -1.48600e-01, -1.42900e-02,  1.75500e-02,  7.62900e-03, -1.94100e-03, -2.07900e-03],
                           [-1.13400e+00,  6.13900e-02, -5.01100e-02, -3.84600e-02, -4.59500e-03,  2.16900e-03,  9.20500e-04, -2.78400e-04],
                           [-4.89300e-01,  2.56400e-02, -3.54100e-02, -1.17200e-02, -1.12000e-03,  1.96100e-03,  6.39000e-04, -1.29600e-04],
                           [-3.72000e-01,  2.02200e-03,  1.59700e-04, -1.16700e-02, -2.69300e-03,  1.22400e-03,  1.57600e-03,  4.87200e-04],
                           [-1.87000e-01, -3.82800e-02, -1.17200e-02, -2.85800e-03, -5.87300e-04,  7.33200e-04,  3.33400e-04,  5.72600e-05],
                           [-1.11500e-01, -2.16600e-02, -4.08500e-03, -1.28900e-03,  3.51000e-04,  3.74400e-05, -1.18100e-04, -1.24900e-04],
                           [-2.04600e-02, -2.58300e-02, -8.27700e-04,  2.10300e-03,  1.39700e-04, -3.28500e-04, -3.25000e-04, -7.58300e-05],
                           [-5.74900e-02,  1.97100e-02,  8.51000e-03, -2.23800e-03, -2.38000e-03, -7.64000e-04,  2.93200e-04,  2.15800e-04]])

# Reaction 3
chebyshev_reaction('bQOOH[O] (+ M) <=> bRO2 (+ M)',
                   Tmin=180.0, Tmax=1500.0,
                   Pmin=(0.01, 'atm'), Pmax=(98.692, 'atm'),
                   coeffs=[[ 4.70900e+00,  1.64000e+00, -1.43900e-01, -2.21600e-02,  2.57000e-03,  2.75600e-03,  3.65900e-04, -3.07000e-04],
                           [-5.47400e+00,  4.73800e-01,  1.23300e-01,  1.12700e-02, -4.90300e-03, -1.78000e-03,  3.57900e-05,  3.68200e-04],
                           [-3.15600e+00, -2.08500e-01, -7.54500e-02,  5.34600e-03,  1.05000e-02,  3.00500e-03, -6.11300e-04, -6.52200e-04],
                           [-1.37200e+00, -5.93300e-02, -4.99200e-02, -1.73200e-02, -2.10300e-03,  1.57500e-03,  7.96700e-04,  3.55700e-05],
                           [-6.88000e-01,  3.25700e-02,  9.38700e-03,  6.99100e-04, -1.28000e-03, -1.28700e-03, -5.89400e-04,  2.72700e-05],
                           [-4.12100e-01, -3.00800e-02, -8.16300e-04,  6.58900e-03,  4.56600e-03,  1.03300e-03, -3.77700e-04, -3.68800e-04],
                           [-2.53900e-01, -3.62000e-02, -9.85000e-03, -2.87700e-03,  8.03500e-04,  1.13300e-03,  4.69600e-04,  2.88200e-05],
                           [-1.28900e-01, -6.32400e-03, -3.07900e-03, -4.74700e-03, -2.20400e-03, -5.90200e-04,  1.36300e-05,  1.33800e-04],
                           [-6.23500e-03, -2.78300e-02, -3.21800e-03,  2.21500e-04, -3.08100e-04, -2.92900e-04, -1.89900e-04, -8.43400e-05],
                           [-2.18300e-02, -1.02700e-03, -3.87100e-03, -1.37400e-03,  4.39000e-04,  6.63800e-04,  2.58900e-04, -3.81500e-05]])

# Reaction 4
chebyshev_reaction('O2 + bR (+ M) <=> bRO2 (+ M)',
                   Tmin=180.0, Tmax=1500.0,
                   Pmin=(0.01, 'atm'), Pmax=(98.692, 'atm'),
                   coeffs=[[ 1.26400e+01,  6.56900e-01, -8.30800e-02,  1.67400e-02, -4.81200e-03,  1.17400e-03, -2.39900e-04,  3.91800e-05],
                           [-2.12800e+00,  9.55400e-01, -4.30200e-02, -3.23000e-03,  7.56700e-04, -2.98500e-04,  1.23100e-04, -4.97100e-05],
                           [-1.45100e+00,  4.70100e-01,  4.02500e-02, -7.58600e-03, -8.72200e-06, -1.03600e-04,  9.37900e-05, -2.94300e-05],
                           [-9.56500e-01,  1.41600e-01,  4.80100e-02,  4.09300e-04, -2.34300e-04, -3.48700e-04,  7.74800e-05,  2.82500e-06],
                           [-5.85700e-01, -7.44600e-03,  2.50000e-02,  3.72600e-03,  8.32000e-04, -2.87500e-04, -3.21400e-05,  1.51000e-05],
                           [-3.38200e-01, -5.30700e-02,  6.00000e-03,  2.11000e-03,  1.14400e-03,  3.45100e-05, -5.65400e-05, -1.07100e-06],
                           [-1.81100e-01, -5.54000e-02, -2.74900e-03,  7.45000e-05,  6.47600e-04,  1.67200e-04, -3.63700e-06, -5.42200e-06],
                           [-8.58300e-02, -4.21000e-02, -5.96300e-03, -6.49800e-04,  1.08600e-04,  1.06000e-04,  2.19400e-05,  3.07300e-06],
                           [-3.11700e-02, -2.52800e-02, -6.56200e-03, -7.77000e-04, -1.11900e-04,  1.89700e-05,  1.22800e-05,  5.15400e-06],
                           [-2.77100e-03, -1.00700e-02, -5.69800e-03, -8.08500e-04, -1.71500e-04, -1.39900e-05,  1.21900e-06,  9.13100e-07]])
#  bRO2(+M) <=> bQOOHg(+M)                             1.000e+00 0.000     0.000
#      TCHEB/ 180.000   1500.000 /
#      PCHEB/ 0.010     98.692   /
#      CHEB/ 10 8/
#      CHEB/ -1.049e+01   7.357e-01    3.283e-02    -1.132e-03   -1.483e-03  /
#      CHEB/ 4.043e-04    2.365e-05    3.198e-05    5.127e+00    1.002e+00   /
#      CHEB/ 7.063e-02    -9.229e-04   -1.360e-04   -4.025e-05   2.120e-04   /
#      CHEB/ 1.061e-06    -3.546e+00   1.593e-01    3.495e-02    8.327e-03   /
#      CHEB/ 2.527e-03    -3.833e-04   1.063e-04    -4.184e-05   -1.629e+00  /
#      CHEB/ -2.176e-01   -4.130e-02   1.090e-02    3.228e-03    1.488e-04   /
#      CHEB/ -1.628e-04   -4.791e-05   -6.123e-01   -7.109e-02   -6.362e-02  /
#      CHEB/ -2.519e-03   2.356e-03    4.331e-04    -1.355e-04   7.430e-07   /
#      CHEB/ -3.496e-01   8.648e-02    -8.535e-03   -1.020e-02   -6.741e-04  /
#      CHEB/ 8.360e-05    1.371e-04    8.551e-05    -2.745e-01   1.313e-02   /
#      CHEB/ 3.086e-02    1.912e-03    -2.312e-03   -5.127e-04   1.814e-04   /
#      CHEB/ 7.730e-05    -1.456e-01   -9.544e-02   3.099e-03    1.128e-02   /
#      CHEB/ 9.210e-04    -5.684e-04   -1.618e-04   -5.558e-05   -3.196e-02  /
#      CHEB/ -6.372e-02   -3.308e-02   9.428e-04    3.485e-03    3.094e-04   /
#      CHEB/ -3.765e-04   -1.172e-04   5.680e-03    2.404e-02    -2.052e-02  /
#      CHEB/ -1.096e-02   1.894e-06    7.948e-04    3.858e-05    1.295e-05   /

# Reaction 5
chebyshev_reaction('bQOOHa (+ M) <=> bQOOHg (+ M)',
                   Tmin=180.0, Tmax=1500.0,
                   Pmin=(0.01, 'atm'), Pmax=(98.692, 'atm'),
                   coeffs=[[-1.98200e+01,  3.96100e+00,  3.97900e-01, -1.86600e-01, -5.16400e-02,  2.13000e-02,  1.07100e-02, -3.53400e-03],
                           [ 3.27400e-01, -1.79900e+00,  1.23400e-01,  3.50300e-01,  6.28500e-02, -3.37600e-02, -1.46400e-02,  4.35900e-03],
                           [-3.89200e+00, -1.42600e-01, -2.54400e-01, -5.79200e-02,  6.75100e-03,  8.19800e-03,  1.13400e-03, -9.05700e-04],
                           [-1.54000e+00, -1.95300e-01, -1.12200e-01, -3.45600e-02, -3.00500e-03,  2.07100e-03,  5.60300e-04, -3.07100e-04],
                           [-4.75400e-01,  1.43500e-02, -7.12600e-02,  2.90800e-03,  5.70700e-03,  2.41700e-03, -2.95300e-04, -8.01300e-04],
                           [-3.01600e-01,  1.33800e-01,  8.78500e-03, -1.17600e-02, -6.08800e-05,  1.69100e-03,  1.32400e-03,  3.18100e-04],
                           [-2.51800e-01,  1.48900e-02,  2.75500e-02,  2.28600e-03, -2.94300e-03, -1.76400e-04,  4.64700e-04,  2.64000e-04],
                           [-1.35200e-01, -8.92700e-02,  1.58400e-03,  1.02300e-02,  4.58300e-04, -8.71100e-04, -2.13000e-04, -2.92800e-05],
                           [-4.63200e-03, -7.48300e-02, -3.26700e-02,  2.31700e-03,  3.43800e-03, -2.01000e-05, -6.31800e-04, -1.03300e-04],
                           [-3.31800e-04,  4.13100e-02, -1.57500e-02, -1.40700e-02, -1.94000e-03,  5.47700e-04,  5.11700e-04,  1.91000e-04]])

# Reaction 6
chebyshev_reaction('bQOOH[O] (+ M) <=> bQOOHg (+ M)',
                   Tmin=180.0, Tmax=1500.0,
                   Pmin=(0.01, 'atm'), Pmax=(98.692, 'atm'),
                   coeffs=[[-7.71100e+00,  1.24300e+00, -6.91700e-02, -9.51700e-02, -5.92400e-03,  7.68700e-03,  2.04900e-03, -2.18000e-05],
                           [-6.09000e+00,  9.71000e-01,  3.00300e-01,  9.13100e-02, -1.81300e-02, -1.23100e-02, -2.73000e-05,  1.30300e-03],
                           [-4.57000e+00, -4.81100e-01, -1.41800e-01,  3.97200e-02,  3.34700e-02,  4.83200e-03, -3.06800e-03, -1.86200e-03],
                           [-1.80300e+00, -3.36800e-01, -1.67200e-01, -2.99600e-02,  4.42500e-03,  6.35100e-03,  1.86700e-03, -3.08700e-04],
                           [-5.84400e-01,  7.15300e-02, -5.99000e-02, -1.80100e-02, -7.09500e-03, -1.94100e-03,  6.71800e-04,  7.05100e-04],
                           [-3.10500e-01,  1.50300e-01,  2.71500e-02, -2.52600e-03, -2.41300e-03, -1.63500e-03, -5.61200e-04,  1.99600e-04],
                           [-2.87400e-01,  4.68600e-02,  4.57100e-02,  8.70900e-03, -1.17100e-03, -1.07400e-03, -2.15200e-04,  6.11000e-05],
                           [-1.45800e-01, -7.09300e-02,  1.11600e-02,  1.41400e-02,  1.26300e-03, -9.18500e-04, -5.58000e-04, -2.05900e-04],
                           [ 1.03400e-02, -7.80300e-02, -3.62800e-02,  3.90800e-03,  5.33200e-03,  8.63700e-04, -4.29600e-04, -3.59700e-04],
                           [ 7.60000e-03,  1.31300e-02, -2.17300e-02, -1.32400e-02,  7.26500e-04,  2.23700e-03,  5.34100e-04,  2.25500e-05]])

# Reaction 7
chebyshev_reaction('O2 + bR (+ M) <=> bQOOHg (+ M)',
                   Tmin=180.0, Tmax=1500.0,
                   Pmin=(0.01, 'atm'), Pmax=(98.692, 'atm'),
                   coeffs=[[ 3.43300e+00,  5.62100e-01, -2.32700e-01, -4.87400e-02,  2.25700e-02,  6.21700e-03, -6.45800e-03,  5.90200e-04],
                           [-5.54900e+00,  1.62300e+00,  3.04700e-01,  4.37000e-04, -4.81200e-02,  2.46900e-03,  9.52300e-03, -2.36700e-03],
                           [-3.22300e+00,  3.99600e-02,  1.02800e-01,  6.80600e-02,  2.70700e-03, -1.32200e-02, -2.16500e-04,  2.60900e-03],
                           [-1.21600e+00, -3.23500e-01, -8.89200e-02,  2.93900e-02,  2.04400e-02, -1.09100e-03, -3.70300e-03, -7.48900e-06],
                           [-2.85900e-01, -9.44600e-03, -1.05900e-01, -2.10200e-02,  9.20900e-03,  5.25500e-03, -6.60500e-04, -1.04000e-03],
                           [-1.38100e-01,  1.97000e-01, -5.01600e-03, -2.98500e-02, -4.62200e-03,  2.62500e-03,  1.41000e-03, -1.93400e-04],
                           [-1.60200e-01,  8.60300e-02,  5.77100e-02, -4.03400e-03, -7.91200e-03, -9.03000e-04,  9.99800e-04,  2.99800e-04],
                           [-8.30800e-02, -7.06500e-02,  2.58400e-02,  1.54900e-02, -1.51200e-03, -1.92600e-03, -9.53000e-05,  1.71100e-04],
                           [-7.11700e-03, -6.49500e-02, -2.16300e-02,  6.35500e-03,  3.79900e-03, -3.98000e-04, -6.38400e-04, -6.84200e-05],
                           [ 1.49400e-02,  1.20200e-02, -1.72400e-02, -7.24900e-03,  1.00500e-03,  6.20700e-04, -1.16400e-04,  1.00800e-05]])
#  bRO2(+M) <=> bQOOHa(+M)                             1.000e+00 0.000     0.000
#      TCHEB/ 180.000   1500.000 /
#      PCHEB/ 0.010     98.692   /
#      CHEB/ 10 8/
#      CHEB/ -1.264e+01   4.832e+00    1.469e-01    -2.625e-01   -5.603e-02  /
#      CHEB/ 2.945e-02    1.523e-02    -2.685e-03   6.080e+00    -2.544e+00  /
#      CHEB/ 1.695e-01    3.784e-01    5.664e-02    -4.150e-02   -1.720e-02  /
#      CHEB/ 4.280e-03    -2.720e+00   -7.014e-02   -1.486e-01   -1.429e-02  /
#      CHEB/ 1.755e-02    7.629e-03    -1.941e-03   -2.079e-03   -1.133e+00  /
#      CHEB/ 6.139e-02    -5.011e-02   -3.846e-02   -4.595e-03   2.169e-03   /
#      CHEB/ 9.205e-04    -2.784e-04   -4.942e-01   2.564e-02    -3.541e-02  /
#      CHEB/ -1.172e-02   -1.120e-03   1.961e-03    6.390e-04    -1.296e-04  /
#      CHEB/ -3.747e-01   2.022e-03    1.597e-04    -1.167e-02   -2.693e-03  /
#      CHEB/ 1.224e-03    1.576e-03    4.872e-04    -1.884e-01   -3.828e-02  /
#      CHEB/ -1.172e-02   -2.858e-03   -5.873e-04   7.332e-04    3.334e-04   /
#      CHEB/ 5.726e-05    -1.122e-01   -2.166e-02   -4.085e-03   -1.289e-03  /
#      CHEB/ 3.510e-04    3.744e-05    -1.181e-04   -1.249e-04   -2.081e-02  /
#      CHEB/ -2.583e-02   -8.277e-04   2.103e-03    1.397e-04    -3.285e-04  /
#      CHEB/ -3.250e-04   -7.583e-05   -5.761e-02   1.971e-02    8.510e-03   /
#      CHEB/ -2.238e-03   -2.380e-03   -7.640e-04   2.932e-04    2.158e-04   /
#  bQOOHg(+M) <=> bQOOHa(+M)                           1.000e+00 0.000     0.000
#      TCHEB/ 180.000   1500.000 /
#      PCHEB/ 0.010     98.692   /
#      CHEB/ 10 8/
#      CHEB/ -1.369e+01   3.961e+00    3.979e-01    -1.866e-01   -5.164e-02  /
#      CHEB/ 2.130e-02    1.071e-02    -3.534e-03   -4.718e+00   -1.799e+00  /
#      CHEB/ 1.234e-01    3.503e-01    6.285e-02    -3.376e-02   -1.464e-02  /
#      CHEB/ 4.359e-03    -3.983e+00   -1.426e-01   -2.544e-01   -5.792e-02  /
#      CHEB/ 6.751e-03    8.198e-03    1.134e-03    -9.057e-04   -1.576e+00  /
#      CHEB/ -1.953e-01   -1.122e-01   -3.456e-02   -3.005e-03   2.071e-03   /
#      CHEB/ 5.603e-04    -3.071e-04   -4.859e-01   1.435e-02    -7.126e-02  /
#      CHEB/ 2.908e-03    5.707e-03    2.417e-03    -2.953e-04   -8.013e-04  /
#      CHEB/ -3.042e-01   1.338e-01    8.785e-03    -1.176e-02   -6.088e-05  /
#      CHEB/ 1.691e-03    1.324e-03    3.181e-04    -2.525e-01   1.489e-02   /
#      CHEB/ 2.755e-02    2.286e-03    -2.943e-03   -1.764e-04   4.647e-04   /
#      CHEB/ 2.640e-04    -1.355e-01   -8.927e-02   1.584e-03    1.023e-02   /
#      CHEB/ 4.583e-04    -8.711e-04   -2.130e-04   -2.928e-05   -4.656e-03  /
#      CHEB/ -7.483e-02   -3.267e-02   2.317e-03    3.438e-03    -2.010e-05  /
#      CHEB/ -6.318e-04   -1.033e-04   -2.649e-04   4.131e-02    -1.575e-02  /
#      CHEB/ -1.407e-02   -1.940e-03   5.477e-04    5.117e-04    1.910e-04   /

# Reaction 8
chebyshev_reaction('bQOOH[O] (+ M) <=> bQOOHa (+ M)',
                   Tmin=180.0, Tmax=1500.0,
                   Pmin=(0.01, 'atm'), Pmax=(98.692, 'atm'),
                   coeffs=[[-1.06600e+01,  4.84300e+00,  1.92700e-01, -2.24200e-01, -4.92500e-02,  2.37400e-02,  1.13700e-02, -3.48700e-03],
                           [-4.66100e+00, -2.29800e+00,  2.04700e-01,  3.64200e-01,  5.59000e-02, -3.58500e-02, -1.48400e-02,  4.40900e-03],
                           [-3.42900e+00, -5.04200e-01, -3.31700e-01, -5.44800e-02,  1.74400e-02,  1.27200e-02,  2.71800e-04, -1.76400e-03],
                           [-1.28000e+00, -4.30300e-02, -1.13700e-01, -6.19800e-02, -8.97000e-03,  3.63300e-03,  2.03600e-03, -1.55400e-04],
                           [-5.61800e-01,  1.01900e-01, -2.12200e-05,  1.92900e-03,  8.08400e-04,  3.51900e-04, -4.75600e-04, -4.93000e-04],
                           [-3.74500e-01,  1.10400e-02,  1.61300e-02,  2.73500e-03,  4.37900e-03,  2.29100e-03,  7.73900e-04, -7.26600e-05],
                           [-2.37000e-01, -3.56400e-02, -1.08500e-02, -2.89200e-03,  6.51500e-05,  1.30800e-03,  6.25200e-04,  1.60600e-04],
                           [-1.20500e-01, -9.49500e-04, -1.81800e-03, -5.66000e-03, -2.65600e-03, -8.92400e-04, -6.85300e-05,  1.41000e-04],
                           [ 1.98800e-02, -3.95400e-02, -1.81400e-03,  2.12000e-03, -4.68500e-04, -5.62000e-04, -3.73600e-04, -8.05600e-05],
                           [-2.77900e-02,  1.52900e-02,  1.99300e-03, -4.49000e-03, -1.47100e-03,  4.12200e-04,  7.24000e-04,  1.78700e-04]])

# Reaction 9
chebyshev_reaction('O2 + bR (+ M) <=> bQOOHa (+ M)',
                   Tmin=180.0, Tmax=1500.0,
                   Pmin=(0.01, 'atm'), Pmax=(98.692, 'atm'),
                   coeffs=[[-2.53700e+00,  4.07000e+00,  4.36000e-01, -8.16800e-02, -1.29300e-02,  3.62200e-02,  1.22400e-02, -5.29500e-03],
                           [-1.46600e+00, -2.14300e+00, -1.75000e-01,  2.29200e-01,  1.06000e-02, -5.09200e-02, -1.61200e-02,  7.01700e-03],
                           [-1.69800e+00,  1.98200e-01, -2.06700e-01, -5.96500e-02,  9.63500e-03,  8.59900e-03,  6.93700e-05, -1.75300e-03],
                           [-8.38700e-01,  1.78800e-01,  8.40900e-03, -3.14200e-02,  1.59900e-03,  4.54200e-03,  1.18900e-03, -6.83900e-04],
                           [-4.50600e-01,  6.05100e-02,  1.86900e-02,  6.97200e-03,  4.50400e-03,  2.32100e-03,  3.05000e-04, -5.54200e-04],
                           [-2.90300e-01, -1.92600e-02,  2.14100e-02, -3.75800e-03, -2.48500e-04,  9.78200e-04,  1.19300e-03,  4.57400e-04],
                           [-1.57100e-01, -5.98500e-02, -4.89700e-03, -4.49300e-04, -4.71700e-04,  1.70100e-04,  8.75000e-05,  1.00700e-04],
                           [-7.31300e-02, -3.70500e-02, -5.44500e-03, -1.14300e-03, -2.02800e-04, -2.11100e-04, -9.27800e-05, -5.98900e-05],
                           [-3.57900e-03, -3.81900e-02, -5.58200e-03,  9.28700e-04,  1.04300e-04, -1.57600e-04, -2.00100e-04,  8.50900e-06],
                           [-7.29700e-03,  8.33700e-03, -2.68500e-04, -3.69800e-03, -2.20200e-03, -3.02800e-04,  5.23300e-04,  2.24800e-04]])
#  bRO2(+M) <=> bQOOH[O](+M)                           1.000e+00 0.000     0.000
#      TCHEB/ 180.000   1500.000 /
#      PCHEB/ 0.010     98.692   /
#      CHEB/ 10 8/
#      CHEB/ -6.788e+00   1.640e+00    -1.439e-01   -2.216e-02   2.570e-03   /
#      CHEB/ 2.756e-03    3.659e-04    -3.070e-04   4.027e+00    4.738e-01   /
#      CHEB/ 1.233e-01    1.127e-02    -4.903e-03   -1.780e-03   3.579e-05   /
#      CHEB/ 3.682e-04    -3.162e+00   -2.085e-01   -7.545e-02   5.346e-03   /
#      CHEB/ 1.050e-02    3.005e-03    -6.113e-04   -6.522e-04   -1.393e+00  /
#      CHEB/ -5.933e-02   -4.992e-02   -1.732e-02   -2.103e-03   1.575e-03   /
#      CHEB/ 7.967e-04    3.557e-05    -6.988e-01   3.257e-02    9.387e-03   /
#      CHEB/ 6.991e-04    -1.280e-03   -1.287e-03   -5.894e-04   2.727e-05   /
#      CHEB/ -4.160e-01   -3.008e-02   -8.163e-04   6.589e-03    4.566e-03   /
#      CHEB/ 1.033e-03    -3.777e-04   -3.688e-04   -2.554e-01   -3.620e-02  /
#      CHEB/ -9.850e-03   -2.877e-03   8.035e-04    1.133e-03    4.696e-04   /
#      CHEB/ 2.882e-05    -1.295e-01   -6.324e-03   -3.079e-03   -4.747e-03  /
#      CHEB/ -2.204e-03   -5.902e-04   1.363e-05    1.338e-04    -6.413e-03  /
#      CHEB/ -2.783e-02   -3.218e-03   2.215e-04    -3.081e-04   -2.929e-04  /
#      CHEB/ -1.899e-04   -8.434e-05   -2.182e-02   -1.027e-03   -3.871e-03  /
#      CHEB/ -1.374e-03   4.390e-04    6.638e-04    2.589e-04    -3.815e-05  /
#  bQOOHg(+M) <=> bQOOH[O](+M)                         1.000e+00 0.000     0.000
#      TCHEB/ 180.000   1500.000 /
#      PCHEB/ 0.010     98.692   /
#      CHEB/ 10 8/
#      CHEB/ -7.112e+00   1.243e+00    -6.917e-02   -9.517e-02   -5.924e-03  /
#      CHEB/ 7.687e-03    2.049e-03    -2.180e-05   -7.236e+00   9.710e-01   /
#      CHEB/ 3.003e-01    9.131e-02    -1.813e-02   -1.231e-02   -2.730e-05  /
#      CHEB/ 1.303e-03    -4.722e+00   -4.811e-01   -1.418e-01   3.972e-02   /
#      CHEB/ 3.347e-02    4.832e-03    -3.068e-03   -1.862e-03   -1.862e+00  /