units(length='cm', time='s', quantity='mol', act_energy='kcal/mol')

ideal_gas(name='gas',
          elements="H D T C Ci O Oi N Ne Ar He Si S F Cl Br I X",
          species="""aOOHbalkene      OH               ibutanal
                     aR               performic_acid   disub_c4ether
                     aQOOHb           H                aadduct
                     trisub_epoxy     ibutenol         aQOOH[O]
                     ipropyl          aRO2             O2
                     formic_acid      propene          aQOOHg
                     ibut_peroxyacid  HO2              CH3""",
          reactions='all',
          initial_state=state(temperature=300.0, pressure=OneAtm))

#-------------------------------------------------------------------------------
# Element data
#-------------------------------------------------------------------------------

element(symbol='Ci', atomic_mass=13.003)
element(symbol='D', atomic_mass=2.014)
element(symbol='Oi', atomic_mass=18.0)
element(symbol='T', atomic_mass=3.016)
element(symbol='X', atomic_mass=195.083)
#-------------------------------------------------------------------------------
# Species data
#-------------------------------------------------------------------------------

species(name='aOOHbalkene',
        atoms='C:3 H:6 O:3',
        thermo=(NASA([10.00, 497.41],
                     [ 3.76691735E+00,  1.51417956E-02,  1.85499431E-04,
                      -4.61303214E-07,  3.27678941E-10, -2.91303447E+04,
                       1.09903968E+01]),
                NASA([497.41, 3000.00],
                     [ 6.20882781E+00,  4.08866173E-02, -2.89934946E-05,
                       9.60428979E-09, -1.19355432E-12, -2.99346740E+04,
                      -4.72842811E+00])))

species(name='OH',
        atoms='H:1 O:1',
        thermo=(NASA([10.00, 984.14],
                     [ 3.49686242E+00,  1.83973160E-04, -9.97634499E-07,
                       1.56942783E-09, -6.10128175E-13,  3.41673934E+03,
                       1.48093120E+00]),
                NASA([984.14, 3000.00],
                     [ 3.45221464E+00, -2.95124034E-04,  7.39418622E-07,
                      -2.89309866E-10,  3.53041498E-14,  3.45751599E+03,
                       1.85813897E+00])))

species(name='ibutanal',
        atoms='C:4 H:8 O:1',
        thermo=(NASA([10.00, 683.88],
                     [ 3.57157346E+00,  3.36936906E-02, -1.78475021E-05,
                       1.31946716E-08, -7.58008388E-12, -2.90216597E+04,
                       1.05595084E+01]),
                NASA([683.88, 3000.00],
                     [ 1.29043622E+00,  4.14804229E-02, -2.27411206E-05,
                       6.08619500E-09, -6.38995128E-13, -2.85797406E+04,
                       2.16477430E+01])))

species(name='aR',
        atoms='C:4 H:9 O:1',
        thermo=(NASA([10.00, 455.22],
                     [ 3.59625500E+00,  3.38947981E-02,  7.37257079E-06,
                      -3.99275335E-08,  2.49019944E-11, -1.21150494E+04,
                       1.18269265E+01]),
                NASA([455.22, 3000.00],
                     [ 2.49586309E+00,  4.35639890E-02, -2.44887770E-05,
                       6.73363769E-09, -7.23862433E-13, -1.20148662E+04,
                       1.62696907E+01])))

species(name='performic_acid',
        atoms='C:1 H:2 O:3',
        thermo=(NASA([10.00, 590.95],
                     [ 3.92633851E+00,  4.24517168E-03,  6.71106764E-05,
                      -1.36545385E-07,  8.03337864E-11, -3.63028176E+04,
                       8.06485813E+00]),
                NASA([590.95, 3000.00],
                     [ 4.39992934E+00,  1.85411415E-02, -1.36005501E-05,
                       4.62292431E-09, -5.88463603E-13, -3.66643888E+04,
                       3.44353230E+00])))

species(name='disub_c4ether',
        atoms='C:4 H:8 O:2',
        thermo=(NASA([10.00, 413.50],
                     [ 3.78241323E+00,  1.89501763E-02,  8.65302396E-05,
                      -1.80580575E-07,  1.13656264E-10, -3.88675826E+04,
                       1.09982450E+01]),
                NASA([413.50, 3000.00],
                     [ 4.29420885E-01,  5.13851903E-02, -3.11292293E-05,
                       9.11498284E-09, -1.03192718E-12, -3.85902882E+04,
                       2.42134976E+01])))

species(name='aQOOHb',
        atoms='C:4 H:9 O:3',
        thermo=(NASA([10.00, 412.78],
                     [ 3.15498836E+00,  8.55068303E-02, -2.35307993E-04,
                       4.71983261E-07, -3.62709267E-10, -3.10508573E+04,
                       1.52522123E+01]),
                NASA([412.78, 3000.00],
                     [ 4.18099845E+00,  5.26168288E-02, -3.23998410E-05,
                       9.59389339E-09, -1.09464519E-12, -3.09400624E+04,
                       1.35782328E+01])))

species(name='H',
        atoms='H:1',
        thermo=(NASA([10.00, 794.01],
                     [ 2.50000000E+00,  1.99051163E-15, -1.19089508E-17,
                       2.10805655E-20, -1.11017699E-23,  2.54725594E+04,
                      -4.61279342E-01]),
                NASA([794.01, 3000.00],
                     [ 2.50000000E+00,  1.52667235E-14, -1.58445285E-17,
                       6.63088600E-21, -9.62111674E-25,  2.54725594E+04,
                      -4.61279342E-01])))

species(name='aadduct',
        atoms='C:4 H:9 O:3',
        thermo=(NASA([10.00, 449.84],
                     [ 3.06901904E+00,  9.20724491E-02, -2.68085092E-04,
                       5.15249897E-07, -3.68046586E-10, -2.96476450E+04,
                       1.46591735E+01]),
                NASA([449.84, 3000.00],
                     [ 4.11210745E+00,  5.16955724E-02, -2.97401041E-05,
                       8.32758939E-09, -9.08861448E-13, -2.94268040E+04,
                       1.39578825E+01])))

species(name='trisub_epoxy',
        atoms='C:4 H:8 O:2',
        thermo=(NASA([10.00, 209.19],
                     [ 3.75295042E+00,  2.37546930E-02,  1.26610110E-04,
                      -4.78364365E-07,  5.79468168E-10, -3.97000195E+04,
                       1.12739684E+01]),
                NASA([209.19, 3000.00],
                     [ 2.64185254E+00,  4.50006531E-02, -2.57361066E-05,
                       7.15266054E-09, -7.72980731E-13, -3.96535340E+04,
                       1.48960343E+01])))

species(name='ibutenol',
        atoms='C:4 H:8 O:1',
        thermo=(NASA([10.00, 135.97],
                     [ 3.95714996E+00,  5.72646980E-03,  4.63611760E-04,
                      -3.04137514E-06,  6.85019471E-09, -2.47953768E+04,
                       8.21931848E+00]),
                NASA([135.97, 3000.00],
                     [ 3.32467612E+00,  3.69033556E-02, -1.89960416E-05,
                       4.73417677E-09, -4.59705291E-13, -2.47897981E+04,
                       9.58133237E+00])))

species(name='aQOOH[O]',
        atoms='C:4 H:9 O:3',
        thermo=(NASA([10.00, 488.36],
                     [ 3.54559533E+00,  3.89536133E-02,  8.47689703E-05,
                      -2.45147486E-07,  1.76157259E-10, -2.41058563E+04,
                       1.34685910E+01]),
                NASA([488.36, 3000.00],
                     [ 3.94214913E+00,  5.71928314E-02, -3.72516212E-05,
                       1.15209013E-08, -1.35808341E-12, -2.44008173E+04,
                       9.21628964E+00])))

species(name='ipropyl',
        atoms='C:3 H:7',
        thermo=(NASA([10.00, 421.76],
                     [ 3.73943775E+00,  3.10070157E-02, -1.51196908E-04,
                       4.35367329E-07, -3.85565052E-10,  9.49213457E+03,
                       7.79448918E+00]),
                NASA([421.76, 3000.00],
                     [-4.74526725E-01,  3.20862468E-02, -1.67340747E-05,
                       4.21365136E-09, -4.13155573E-13,  1.01934458E+04,
                       2.85865912E+01])))

species(name='aRO2',
        atoms='C:4 H:9 O:3',
        thermo=(NASA([10.00, 670.36],
                     [ 3.45405325E+00,  4.74751311E-02,  9.77507759E-06,
                      -6.31019603E-08,  3.75500067E-11, -3.39555341E+04,
                       1.39284976E+01]),
                NASA([670.36, 3000.00],
                     [ 5.04137652E+00,  5.19952978E-02, -3.16472789E-05,
                       9.22798587E-09, -1.03598915E-12, -3.44827267E+04,
                       4.56056770E+00])))

species(name='O2',
        atoms='O:2',
        thermo=(NASA([10.00, 605.96],
                     [ 3.50743498E+00, -4.43860349E-04,  1.45938058E-06,
                       1.61509333E-09, -2.32050052E-12, -9.24756224E+02,
                       4.72183634E+00]),
                NASA([605.96, 3000.00],
                     [ 2.87462882E+00,  2.17840991E-03, -1.18262921E-06,
                       2.86910493E-10, -2.53297146E-14, -8.19517838E+02,
                       7.69331810E+00])))

species(name='formic_acid',
        atoms='C:1 H:2 O:2',
        thermo=(NASA([10.00, 741.38],
                     [ 4.06855785E+00, -4.74562133E-03,  4.71797900E-05,
                      -6.07490052E-08,  2.51286794E-11, -4.66880837E+04,
                       6.53681035E+00]),
                NASA([741.38, 3000.00],
                     [ 1.13645847E+00,  1.74953124E-02, -1.08112403E-05,
                       3.08075326E-09, -3.34892658E-13, -4.64297918E+04,
                       1.86149484E+01])))

species(name='propene',
        atoms='C:3 H:6',
        thermo=(NASA([10.00, 519.53],
                     [ 3.98723879E+00,  4.72040503E-04,  6.51776229E-05,
                      -9.89891002E-08,  4.91141123E-11,  2.17047270E+03,
                       6.98071210E+00]),
                NASA([519.53, 3000.00],
                     [ 3.79893331E-01,  2.82457690E-02, -1.50108430E-05,
                       3.90894069E-09, -4.00521928E-13,  2.54530005E+03,
                       2.20218922E+01])))

species(name='aQOOHg',
        atoms='C:4 H:9 O:3',
        thermo=(NASA([10.00, 455.48],
                     [ 3.62522127E+00,  2.83222320E-02,  2.08527447E-04,
                      -5.67427418E-07,  4.35169138E-10, -2.61800034E+04,
                       1.26617758E+01]),
                NASA([455.48, 3000.00],
                     [ 5.13914202E+00,  5.96270859E-02, -4.14435328E-05,
                       1.34202375E-08, -1.63474553E-12, -2.67805598E+04,
                       1.46991116E+00])))

species(name='ibut_peroxyacid',
        atoms='C:4 H:8 O:3',
        thermo=(NASA([10.00, 1386.21],
                     [ 3.50995385E+00,  4.78670384E-02, -2.40781384E-05,
                       3.71046938E-09,  3.85442115E-13, -5.03020161E+04,
                       1.22017268E+01]),
                NASA([1386.21, 3000.00],
                     [ 1.24543146E+01,  3.02396862E-02, -1.38577031E-05,
                       3.05328904E-09, -2.63982457E-13, -5.35678994E+04,
                      -3.67061828E+01])))

species(name='HO2',
        atoms='H:1 O:2',
        thermo=(NASA([10.00, 891.11],
                     [ 4.02887004E+00, -1.75769289E-03,  1.08726004E-05,
                      -1.13812972E-08,  3.90113097E-12,  4.95165001E+02,
                       4.69302008E+00]),
                NASA([891.11, 3000.00],
                     [ 3.06571044E+00,  4.28505005E-03, -2.19325920E-06,
                       5.58882699E-10, -5.61246669E-14,  5.98557610E+02,
                       8.84564156E+00])))

species(name='CH3',
        atoms='C:1 H:3',
        thermo=(NASA([10.00, 616.77],
                     [ 3.98929952E+00,  5.45150461E-04,  9.01320092E-06,
                      -1.08320497E-08,  4.38985879E-12,  1.65859883E+04,
                       2.22446886E-01]),
                NASA([616.77, 3000.00],
                     [ 3.35928237E+00,  4.63117126E-03, -9.24365433E-07,
                      -9.02514624E-11,  3.56905106E-14,  1.66637014E+04,
                       2.95743732E+00])))

#-------------------------------------------------------------------------------
# Reaction data
#-------------------------------------------------------------------------------

# Reaction 1
chebyshev_reaction('aQOOH[O] (+ M) <=> aQOOHb (+ M)',
                   Tmin=180.0, Tmax=1500.0,
                   Pmin=(0.01, 'atm'), Pmax=(98.692, 'atm'),
                   coeffs=[[ 2.88400e+00,  7.97100e-01, -2.68900e-01,  1.47800e-02,  2.38500e-03, -1.91800e-03, -7.25800e-04,  2.10800e-04],
                           [ 2.63900e+00,  1.34500e+00, -2.03800e-01,  1.84900e-02,  2.13000e-02, -2.20700e-03, -1.71000e-03,  1.83600e-04],
                           [-4.27500e-02,  4.99100e-01, -2.30500e-02, -3.42900e-02,  7.93200e-03,  2.65200e-03, -8.32500e-04,  4.60300e-06],
                           [-2.70300e-01,  1.87300e-01,  5.21200e-02, -2.03600e-02, -3.69400e-03,  1.58600e-03, -3.80100e-05, -2.12900e-04],
                           [-1.75200e-01,  9.73600e-02,  3.97200e-02, -3.76600e-03, -1.50800e-03,  6.03200e-04,  1.55500e-04, -1.10600e-04],
                           [-6.63700e-02,  4.08500e-02,  1.77900e-02, -4.62900e-03, -5.42700e-04,  1.13300e-03, -9.79000e-05, -1.06900e-04],
                           [-4.13400e-02,  1.46700e-02,  1.20100e-02, -2.18400e-03, -1.75600e-03,  1.15300e-03,  9.07800e-05, -2.41900e-04],
                           [-2.30100e-02,  3.05900e-05,  3.95300e-03,  9.37000e-04, -1.29400e-03,  2.82900e-04,  2.85000e-04, -1.09700e-04],
                           [-1.43100e-02, -2.24900e-03,  2.87800e-04,  1.46900e-03, -5.15100e-04, -2.20600e-04,  2.26400e-04,  2.90700e-06],
                           [-8.28200e-04, -5.27800e-03, -2.03300e-03,  6.24800e-04,  1.34000e-04, -3.57900e-04,  3.84400e-05,  1.13200e-04]])

# Reaction 2
chebyshev_reaction('aQOOHg (+ M) <=> aQOOHb (+ M)',
                   Tmin=180.0, Tmax=1500.0,
                   Pmin=(0.01, 'atm'), Pmax=(98.692, 'atm'),
                   coeffs=[[ 5.04400e-01, -7.08400e-01, -3.76800e-01,  4.35200e-02,  1.11800e-02, -2.53800e-03, -1.28300e-03,  2.39400e-04],
                           [ 4.80300e+00,  1.82700e+00, -4.17700e-01, -1.65900e-04,  3.01900e-02, -3.17400e-03, -2.83300e-03,  3.96200e-04],
                           [ 6.27700e-02,  7.26000e-01, -1.70500e-02, -5.67100e-02,  1.38300e-02,  4.15500e-03, -2.43300e-03, -1.68200e-04],
                           [-4.30600e-01,  2.15800e-01,  7.68900e-02, -3.02700e-02, -3.91900e-03,  4.44300e-03, -7.35000e-05, -6.02300e-04],
                           [-1.76900e-01,  9.37400e-02,  4.31000e-02, -6.84100e-03, -5.17700e-03,  1.50300e-03,  8.10300e-04, -3.54600e-04],
                           [-7.70500e-02,  4.45600e-02,  2.24300e-02, -3.37100e-03, -2.61500e-03,  9.03600e-04,  4.33000e-04, -1.68100e-04],
                           [-5.03000e-02,  1.21200e-02,  1.25000e-02, -1.50400e-03, -1.98700e-03,  7.03100e-04,  3.33300e-04, -1.20700e-04],
                           [-2.29400e-02,  5.64500e-04,  3.59300e-03,  8.13300e-04, -1.16100e-03, -1.46200e-05,  2.70000e-04,  1.95700e-05],
                           [-1.45100e-02, -2.27200e-03, -5.17000e-04,  1.17100e-03, -2.30500e-04, -3.40300e-04,  5.56400e-05,  1.01400e-04],
                           [-6.07700e-03, -3.22000e-03, -8.77300e-04,  7.09700e-04,  3.28800e-05, -2.41200e-04, -4.21600e-05,  6.23800e-05]])

# Reaction 3
chebyshev_reaction('aRO2 (+ M) <=> aQOOHb (+ M)',
                   Tmin=180.0, Tmax=1500.0,
                   Pmin=(0.01, 'atm'), Pmax=(98.692, 'atm'),
                   coeffs=[[-3.55100e+00,  5.95000e-01, -1.69500e-01,  1.78600e-02,  6.41900e-03, -1.73200e-03, -5.70700e-04,  1.70700e-04],
                           [ 9.10300e+00,  9.89500e-01, -2.56800e-01,  1.91100e-02,  1.18100e-02, -2.23200e-03, -1.17400e-03,  2.49800e-04],
                           [ 9.03600e-01,  5.66000e-01, -9.35800e-02, -9.76100e-03,  8.18900e-03,  1.88900e-04, -1.05600e-03,  4.67000e-05],
                           [-3.74800e-01,  2.29700e-01,  1.35200e-02, -2.01400e-02,  2.99800e-03,  1.48900e-03, -5.80800e-04, -1.10700e-04],
                           [-3.10400e-01,  9.09000e-02,  3.03900e-02, -1.18400e-02, -3.54600e-04,  1.06800e-03, -5.61300e-05, -1.28000e-04],
                           [-1.23700e-01,  5.49200e-02,  1.39400e-02, -3.07800e-03, -7.70200e-04,  3.16700e-04,  1.13100e-04, -7.13600e-05],
                           [-5.75900e-02,  2.77000e-02,  7.04500e-03, -9.12200e-04, -4.01800e-04,  2.54300e-04,  2.31200e-05, -5.53700e-05],
                           [-3.69700e-02,  8.20600e-04,  7.37600e-03, -7.03800e-04, -5.75900e-04,  4.18000e-04,  3.27800e-06, -7.50300e-05],
                           [-1.74800e-02, -9.05700e-03,  4.59400e-03,  2.98200e-04, -6.39700e-04,  2.28600e-04,  8.10700e-05, -5.42000e-05],
                           [-3.03700e-03, -6.49100e-03,  4.46900e-04,  8.82100e-04, -2.37000e-04, -8.12500e-05,  9.12700e-05,  4.79300e-06]])

# Reaction 4
chebyshev_reaction('aadduct (+ M) <=> aQOOHb (+ M)',
                   Tmin=180.0, Tmax=1500.0,
                   Pmin=(0.01, 'atm'), Pmax=(98.692, 'atm'),
                   coeffs=[[-9.45500e+00,  4.35000e-01, -1.09600e-01,  2.26100e-02,  3.51900e-03, -3.23500e-03, -4.31000e-04,  3.67100e-04],
                           [ 7.05500e+00,  1.80500e+00, -4.29300e-01,  2.48900e-03,  2.12900e-02,  9.52900e-04, -1.79300e-03, -1.46600e-04],
                           [ 7.05600e-01,  1.56700e-01,  4.78100e-02, -5.12200e-03,  2.09500e-03, -1.70000e-03, -1.15700e-03,  4.40700e-04],
                           [-4.44800e-01,  3.82700e-01,  4.52100e-02, -5.02900e-02,  2.66900e-03,  4.97100e-03,  2.91300e-04, -6.71200e-04],
                           [-9.89100e-02,  6.72000e-02, -6.77600e-03,  1.67400e-02,  1.75100e-04, -2.23700e-03, -6.48400e-04,  3.06900e-04],
                           [-4.14900e-02, -1.77000e-04,  5.95500e-02, -1.20500e-02, -7.66700e-03,  3.19000e-03,  1.07900e-03, -4.02700e-04],
                           [-6.74800e-02,  5.85600e-02, -5.58500e-03, -7.97900e-03,  6.56900e-03, -3.51600e-05, -1.13600e-03, -6.54600e-06],
                           [-1.06300e-02, -1.62400e-02, -1.55400e-03,  1.10500e-02, -4.88000e-03, -4.23300e-04,  1.01400e-03, -9.68600e-05],
                           [-1.68400e-02, -1.24800e-02,  1.69700e-02, -6.28300e-03, -2.45600e-03,  2.12800e-03,  6.37300e-05, -2.53200e-04],
                           [-5.64900e-03,  2.71800e-03, -1.40800e-02,  2.07500e-03,  5.18500e-03, -2.26200e-03, -6.15700e-04,  4.22200e-04]])

# Reaction 5
chebyshev_reaction('O2 + aR (+ M) <=> aQOOHb (+ M)',
                   Tmin=180.0, Tmax=1500.0,
                   Pmin=(0.01, 'atm'), Pmax=(98.692, 'atm'),
                   coeffs=[[ 1.17800e+01, -8.13800e-02, -4.97600e-01,  3.10000e-02,  2.18500e-02, -2.91300e-03, -1.25600e-03, -3.03700e-04],
                           [-5.09400e-01,  8.95300e-01,  8.08900e-02, -6.72800e-02, -2.25100e-03,  6.55600e-03, -4.44600e-05, -2.80900e-04],
                           [-3.45200e-01,  3.47300e-01,  4.86000e-02, -1.01100e-02,  1.42000e-03, -9.58500e-04, -1.11200e-03,  7.27200e-04],
                           [-2.22000e-01,  1.45600e-01,  3.54700e-02, -9.83200e-03, -1.55500e-03,  3.27700e-03, -2.73800e-04, -7.89000e-04],
                           [-8.33900e-02,  5.19100e-02,  3.40900e-02, -8.36900e-03, -6.70600e-03,  3.61000e-03,  1.37800e-03, -9.07200e-04],
                           [-3.98400e-02,  2.96300e-02,  1.13200e-02, -7.85600e-04, -3.58900e-03,  1.95500e-05,  1.27000e-03,  2.75300e-06],
                           [-2.33800e-02,  9.35500e-03,  1.02300e-03,  1.76900e-03, -7.34500e-04, -9.05600e-04,  4.29800e-04,  2.51900e-04],
                           [-7.75900e-03, -2.98000e-03, -5.75700e-04,  1.16700e-03,  1.37700e-04, -5.54200e-04,  1.90000e-07,  1.99300e-04],
                           [-8.57700e-04, -1.21100e-02,  2.33500e-03,  1.76600e-04, -3.95800e-04,  4.76900e-05, -8.84200e-05,  5.62100e-05],
                           [-3.35200e-03, -1.85100e-03, -2.24200e-03,  6.22100e-04,  2.03500e-04, -3.35200e-04, -1.57100e-05,  8.59300e-05]])
#  aQOOHb(+M) <=> aQOOH[O](+M)                         1.000e+00 0.000     0.000
#      TCHEB/ 180.000   1500.000 /
#      PCHEB/ 0.010     98.692   /
#      CHEB/ 10 8/
#      CHEB/ -7.993e+00   7.971e-01    -2.689e-01   1.478e-02    2.385e-03   /
#      CHEB/ -1.918e-03   -7.258e-04   2.108e-04    9.834e+00    1.345e+00   /
#      CHEB/ -2.038e-01   1.849e-02    2.130e-02    -2.207e-03   -1.710e-03  /
#      CHEB/ 1.836e-04    3.517e-02    4.991e-01    -2.305e-02   -3.429e-02  /
#      CHEB/ 7.932e-03    2.652e-03    -8.325e-04   4.603e-06    -2.243e-01  /
#      CHEB/ 1.873e-01    5.212e-02    -2.036e-02   -3.694e-03   1.586e-03   /
#      CHEB/ -3.801e-05   -2.129e-04   -1.598e-01   9.736e-02    3.972e-02   /
#      CHEB/ -3.766e-03   -1.508e-03   6.032e-04    1.555e-04    -1.106e-04  /
#      CHEB/ -6.160e-02   4.085e-02    1.779e-02    -4.629e-03   -5.427e-04  /
#      CHEB/ 1.133e-03    -9.790e-05   -1.069e-04   -3.953e-02   1.467e-02   /
#      CHEB/ 1.201e-02    -2.184e-03   -1.756e-03   1.153e-03    9.078e-05   /
#      CHEB/ -2.419e-04   -2.230e-02   3.059e-05    3.953e-03    9.370e-04   /
#      CHEB/ -1.294e-03   2.829e-04    2.850e-04    -1.097e-04   -1.412e-02  /
#      CHEB/ -2.249e-03   2.878e-04    1.469e-03    -5.151e-04   -2.206e-04  /
#      CHEB/ 2.264e-04    2.907e-06    -8.212e-04   -5.278e-03   -2.033e-03  /
#      CHEB/ 6.248e-04    1.340e-04    -3.579e-04   3.844e-05    1.132e-04   /

# Reaction 6
chebyshev_reaction('aQOOHg (+ M) <=> aQOOH[O] (+ M)',
                   Tmin=180.0, Tmax=1500.0,
                   Pmin=(0.01, 'atm'), Pmax=(98.692, 'atm'),
                   coeffs=[[ 8.97900e-01,  8.42300e-01, -3.09700e-01,  2.08400e-02,  5.58800e-04, -1.21100e-03, -1.05300e-03,  1.54300e-04],
                           [ 3.63800e+00,  1.42000e+00, -2.02100e-01,  1.39700e-02,  2.96000e-02, -2.81100e-03, -2.10400e-03,  1.23700e-04],
                           [-3.24000e-01,  5.04000e-01, -1.05000e-02, -4.86400e-02,  1.23100e-02,  3.93600e-03, -1.75200e-03, -9.49000e-05],
                           [-2.36800e-01,  1.60800e-01,  7.37100e-02, -2.67700e-02, -5.88700e-03,  4.17000e-03, -2.94400e-04, -5.39000e-04],
                           [-1.43100e-01,  7.05700e-02,  5.29000e-02, -1.73200e-04, -6.73800e-03,  1.40400e-03,  7.44100e-04, -4.55000e-04],
                           [-6.53200e-02,  3.50600e-02,  1.83300e-02,  2.44400e-03, -2.83600e-03,  1.64000e-04,  6.17200e-04, -1.36100e-04],
                           [-4.38400e-02,  2.00200e-02,  7.88100e-03,  8.04300e-04, -1.29700e-03, -4.22900e-05,  3.06500e-04, -5.71900e-05],
                           [-2.70700e-02,  5.97900e-03,  2.63600e-03,  7.42300e-04, -3.57800e-04, -2.24200e-04,  1.21000e-04,  3.51900e-05],
                           [-1.60400e-02,  1.62500e-04,  9.54200e-04,  8.53400e-04, -1.72300e-04, -1.90600e-04,  5.54100e-05,  2.66300e-05],
                           [-9.43400e-04, -5.14700e-03, -1.28600e-03,  4.14100e-04,  2.10300e-04, -2.57900e-04, -3.99300e-05,  1.05800e-04]])

# Reaction 7
chebyshev_reaction('aRO2 (+ M) <=> aQOOH[O] (+ M)',
                   Tmin=180.0, Tmax=1500.0,
                   Pmin=(0.01, 'atm'), Pmax=(98.692, 'atm'),
                   coeffs=[[-4.12400e+00,  2.14100e+00, -1.73700e-01, -8.03200e-03, -3.02600e-03,  1.18800e-04, -4.87600e-05,  2.62200e-05],
                           [ 9.89100e+00,  7.80000e-01, -1.99000e-02,  2.98000e-02,  8.15700e-03, -2.64400e-03, -8.78900e-04,  1.19100e-04],
                           [-5.87300e-01,  2.67100e-01, -4.05800e-02, -9.96400e-03,  8.61300e-03,  6.00700e-04, -3.43200e-04,  3.32700e-05],
                           [-2.10200e-01,  1.27900e-01, -3.39400e-03, -1.80000e-02,  9.33100e-04,  1.56300e-03, -3.66100e-04, -8.01900e-05],
                           [-1.55000e-01,  9.04000e-02,  1.99900e-02, -6.72600e-03, -2.36800e-03,  5.01000e-04,  3.14500e-05, -7.87700e-05],
                           [-9.44800e-02,  4.12100e-02,  1.43900e-02, -1.14000e-03, -1.17400e-03,  2.01400e-04,  6.02200e-05, -6.28100e-05],
                           [-6.27400e-02,  1.78200e-02,  1.00600e-02,  7.44600e-05, -8.38600e-04,  1.43600e-04,  1.58000e-04, -8.90800e-05],
                           [-3.64200e-02,  4.77600e-03,  4.72600e-03,  6.56300e-05,  2.79100e-04, -8.12500e-05, -1.21100e-04,  1.05300e-04],
                           [-2.03200e-02, -2.68800e-03,  4.29200e-03,  6.55100e-04, -8.83600e-04,  2.92300e-04,  1.64100e-04, -1.63500e-04],
                           [-4.63900e-04, -7.37300e-03, -1.07900e-03,  7.71000e-04,  5.85500e-04, -3.53800e-04, -9.23700e-05,  1.73200e-04]])

# Reaction 8
chebyshev_reaction('aadduct (+ M) <=> aQOOH[O] (+ M)',
                   Tmin=180.0, Tmax=1500.0,
                   Pmin=(0.01, 'atm'), Pmax=(98.692, 'atm'),
                   coeffs=[[-9.37800e+00,  2.33000e+00, -1.72200e-01, -4.12900e-03, -3.03300e-03, -6.21000e-04, -2.04600e-04,  8.73100e-05],
                           [ 6.60600e+00,  8.57500e-01, -3.92000e-02,  2.28600e-02,  1.18100e-02, -1.92200e-03, -9.11600e-04,  4.42900e-05],
                           [-2.54900e-01,  2.79600e-01, -8.34400e-03, -2.25600e-02,  6.06500e-03,  1.70600e-03, -3.89500e-04, -1.63800e-06],
                           [-8.86800e-02,  1.12700e-01,  3.70100e-02, -1.75900e-02, -3.83600e-03,  1.75900e-03, -4.72700e-05, -1.37200e-04],
                           [-7.06800e-02,  7.00300e-02,  3.61200e-02, -9.25700e-05, -4.34500e-03,  2.38300e-04,  3.46700e-04, -1.47700e-04],
                           [-4.55000e-02,  3.25400e-02,  1.39600e-02,  2.39200e-03, -1.09400e-03, -1.32100e-04,  2.04000e-04, -1.71900e-05],
                           [-4.02400e-02,  1.59300e-02,  6.43000e-03,  6.20100e-04, -2.28200e-04,  6.70700e-05,  5.78400e-05, -3.21000e-05],
                           [-2.87000e-02,  3.02500e-03,  2.32400e-03,  2.21000e-04,  2.00100e-04,  4.34800e-05, -6.72600e-05,  2.38400e-05],
                           [-1.83400e-02, -3.02500e-03,  1.62700e-03,  6.44400e-04, -3.99500e-04,  1.82100e-04,  8.21800e-05, -1.06100e-04],
                           [-5.28500e-03, -8.13400e-03, -1.88100e-03,  6.73700e-04,  3.11500e-04, -2.27700e-04,  2.81200e-06,  9.24600e-05]])

# Reaction 9
chebyshev_reaction('O2 + aR (+ M) <=> aQOOH[O] (+ M)',
                   Tmin=180.0, Tmax=1500.0,
                   Pmin=(0.01, 'atm'), Pmax=(98.692, 'atm'),
                   coeffs=[[ 1.14000e+01,  1.27900e+00, -2.65700e-01, -1.72700e-02,  1.94600e-02,  1.29200e-03, -3.23800e-03, -2.73000e-04],
                           [-9.79200e-01,  4.74000e-01,  1.29800e-01, -2.19500e-02, -1.73100e-02,  3.64700e-03,  3.19100e-03, -7.05400e-04],
                           [-4.43800e-01,  1.02900e-01,  6.86600e-02,  2.03700e-02, -5.31200e-03, -5.07300e-03,  4.02100e-04,  1.14700e-03],
                           [-1.71500e-01,  5.59700e-02,  2.62500e-02,  7.31700e-03,  4.40700e-04, -9.77600e-04, -5.60500e-04,  4.42800e-05],
                           [-9.64700e-02,  4.74600e-02,  1.37500e-02, -9.24900e-04, -5.17400e-04,  9.45200e-04,  2.80400e-04, -2.55300e-04],
                           [-2.52600e-02,  1.73000e-02,  6.07200e-03, -5.69000e-05, -6.05200e-04,  1.81900e-04,  2.55200e-04, -1.93800e-06],
                           [-1.26400e-02, -1.46300e-03,  5.13400e-04,  1.05000e-03,  3.95400e-04, -1.12700e-04, -9.76500e-05,  2.97700e-05],
                           [-8.21000e-03, -7.72300e-03, -1.68300e-03,  9.22100e-04,  5.77600e-04, -6.28700e-05, -1.28600e-04, -4.27600e-06],
                           [-3.56100e-03, -6.88600e-03, -1.87100e-03,  4.29800e-04,  3.70400e-04, -1.02000e-05, -5.47800e-05,  1.59700e-07],
                           [ 5.10400e-03, -6.16500e-03, -1.65100e-03,  2.38600e-04,  1.49800e-04, -6.62400e-05, -2.26900e-05,  1.89900e-05]])
#  aQOOHb(+M) <=> aQOOHg(+M)                           1.000e+00 0.000     0.000
#      TCHEB/ 180.000   1500.000 /
#      PCHEB/ 0.010     98.692   /
#      CHEB/ 10 8/
#      CHEB/ -7.766e+00   -7.084e-01   -3.768e-01   4.352e-02    1.118e-02   /
#      CHEB/ -2.538e-03   -1.283e-03   2.394e-04    1.010e+01    1.827e+00   /
#      CHEB/ -4.177e-01   -1.659e-04   3.019e-02    -3.174e-03   -2.833e-03  /
#      CHEB/ 3.962e-04    2.860e-01    7.260e-01    -1.705e-02   -5.671e-02  /
#      CHEB/ 1.383e-02    4.155e-03    -2.433e-03   -1.682e-04   -3.365e-01  /
#      CHEB/ 2.158e-01    7.689e-02    -3.027e-02   -3.919e-03   4.443e-03   /
#      CHEB/ -7.350e-05   -6.023e-04   -1.487e-01   9.374e-02    4.310e-02   /
#      CHEB/ -6.841e-03   -5.177e-03   1.503e-03    8.103e-04    -3.546e-04  /
#      CHEB/ -6.918e-02   4.456e-02    2.243e-02    -3.371e-03   -2.615e-03  /
#      CHEB/ 9.036e-04    4.330e-04    -1.681e-04   -4.779e-02   1.212e-02   /
#      CHEB/ 1.250e-02    -1.504e-03   -1.987e-03   7.031e-04    3.333e-04   /
#      CHEB/ -1.207e-04   -2.221e-02   5.645e-04    3.593e-03    8.133e-04   /
#      CHEB/ -1.161e-03   -1.462e-05   2.700e-04    1.957e-05    -1.449e-02  /
#      CHEB/ -2.272e-03   -5.170e-04   1.171e-03    -2.305e-04   -3.403e-04  /
#      CHEB/ 5.564e-05    1.014e-04    -6.219e-03   -3.220e-03   -8.773e-04  /
#      CHEB/ 7.097e-04    3.288e-05    -2.412e-04   -4.216e-05   6.238e-05   /
#  aQOOH[O](+M) <=> aQOOHg(+M)                         1.000e+00 0.000     0.000
#      TCHEB/ 180.000   1500.000 /
#      PCHEB/ 0.010     98.692   /
#      CHEB/ 10 8/
#      CHEB/ 3.504e+00    8.423e-01    -3.097e-01   2.084e-02    5.588e-04   /
#      CHEB/ -1.211e-03   -1.053e-03   1.543e-04    1.740e+00    1.420e+00   /
#      CHEB/ -2.021e-01   1.397e-02    2.960e-02    -2.811e-03   -2.104e-03  /
#      CHEB/ 1.237e-04    -1.787e-01   5.040e-01    -1.050e-02   -4.864e-02  /
#      CHEB/ 1.231e-02    3.936e-03    -1.752e-03   -9.490e-05   -1.886e-01  /
#      CHEB/ 1.608e-01    7.371e-02    -2.677e-02   -5.887e-03   4.170e-03   /
#      CHEB/ -2.944e-04   -5.390e-04   -1.303e-01   7.057e-02    5.290e-02   /
#      CHEB/ -1.732e-04   -6.738e-03   1.404e-03    7.441e-04    -4.550e-04  /