units(length='cm', time='s', quantity='mol', act_energy='kcal/mol')

ideal_gas(name='gas',
          elements="H D T C Ci O Oi N Ne Ar He Si S F Cl Br I X",
          species="""propene3ol       OH               disub_c4ether
                     H2O              disub_epoxy      gQOOHa
                     propene1ol       gQOOHb           ipropylOOH
                     galdoxy          galkene          CH2O
                     O2               gRO2             gQOOHg
                     gR               galdol           monosub_c4ether
                     HO2              gQOOH[O]""",
          reactions='all',
          initial_state=state(temperature=300.0, pressure=OneAtm))

#-------------------------------------------------------------------------------
# Element data
#-------------------------------------------------------------------------------

element(symbol='Ci', atomic_mass=13.003)
element(symbol='D', atomic_mass=2.014)
element(symbol='Oi', atomic_mass=18.0)
element(symbol='T', atomic_mass=3.016)
element(symbol='X', atomic_mass=195.083)
#-------------------------------------------------------------------------------
# Species data
#-------------------------------------------------------------------------------

species(name='propene3ol',
        atoms='C:3 H:6 O:1',
        thermo=(NASA([10.00, 444.81],
                     [ 3.92769709E+00,  4.89977303E-03,  1.13094874E-04,
                      -2.59008187E-07,  1.86205760E-10, -1.74788673E+04,
                       9.90805416E+00]),
                NASA([444.81, 3000.00],
                     [ 2.61720343E+00,  3.01777872E-02, -1.76511625E-05,
                       5.14864061E-09, -5.91153761E-13, -1.74957678E+04,
                       1.36683107E+01])))

species(name='OH',
        atoms='H:1 O:1',
        thermo=(NASA([10.00, 984.14],
                     [ 3.49686242E+00,  1.83973160E-04, -9.97634499E-07,
                       1.56942783E-09, -6.10128175E-13,  3.41673934E+03,
                       1.48093120E+00]),
                NASA([984.14, 3000.00],
                     [ 3.45221464E+00, -2.95124034E-04,  7.39418622E-07,
                      -2.89309866E-10,  3.53041498E-14,  3.45751599E+03,
                       1.85813897E+00])))

species(name='disub_c4ether',
        atoms='C:4 H:8 O:2',
        thermo=(NASA([10.00, 413.50],
                     [ 3.78241323E+00,  1.89501763E-02,  8.65302396E-05,
                      -1.80580575E-07,  1.13656264E-10, -4.05592452E+04,
                       1.09982450E+01]),
                NASA([413.50, 3000.00],
                     [ 4.29420885E-01,  5.13851903E-02, -3.11292293E-05,
                       9.11498284E-09, -1.03192718E-12, -4.02819508E+04,
                       2.42134976E+01])))

species(name='H2O',
        atoms='H:2 O:1',
        thermo=(NASA([10.00, 773.84],
                     [ 4.00473541E+00, -2.39729134E-04,  8.11862955E-07,
                       1.47891862E-09, -1.19783539E-12, -3.03533807E+04,
                      -9.96254147E-02]),
                NASA([773.84, 3000.00],
                     [ 3.52133374E+00,  1.05377009E-03,  6.40722099E-07,
                      -3.86240235E-10,  5.49243294E-14, -3.02424794E+04,
                       2.34173094E+00])))

species(name='disub_epoxy',
        atoms='C:4 H:8 O:2',
        thermo=(NASA([10.00, 549.41],
                     [ 3.89863211E+00,  5.97532637E-03,  1.66685676E-04,
                      -3.10743768E-07,  1.78330192E-10, -3.44593999E+04,
                       1.13847308E+01]),
                NASA([549.41, 3000.00],
                     [-6.40277648E-01,  6.05960003E-02, -4.13427220E-05,
                       1.31555461E-08, -1.57685017E-12, -3.42862830E+04,
                       2.76005436E+01])))

species(name='gQOOHa',
        atoms='C:4 H:9 O:3',
        thermo=(NASA([10.00, 160.74],
                     [ 3.80808147E+00,  2.31043884E-02,  5.26945984E-04,
                      -3.11500696E-06,  6.03881958E-09, -2.68380958E+04,
                       1.17645316E+01]),
                NASA([160.74, 3000.00],
                     [ 2.90630300E+00,  6.50241173E-02, -4.60073244E-05,
                       1.51330930E-08, -1.87074267E-12, -2.68342712E+04,
                       1.36838819E+01])))

species(name='propene1ol',
        atoms='C:3 H:6 O:1',
        thermo=(NASA([10.00, 459.42],
                     [ 3.91245344E+00,  5.85800161E-03,  1.15412006E-04,
                      -2.68014417E-07,  1.91800131E-10, -1.93481359E+04,
                       8.14807684E+00]),
                NASA([459.42, 3000.00],
                     [ 3.14049093E+00,  2.95550898E-02, -1.73843684E-05,
                       5.11506211E-09, -5.92966137E-13, -1.94563584E+04,
                       9.32215170E+00])))

species(name='gQOOHb',
        atoms='C:4 H:9 O:3',
        thermo=(NASA([10.00, 1018.67],
                     [ 3.99028351E+00,  4.29665712E-02,  2.28338778E-05,
                      -5.67914439E-08,  2.29383258E-11, -2.09853426E+04,
                       1.20326731E+01]),
                NASA([1018.67, 3000.00],
                     [ 1.38304153E+01,  3.88527019E-02, -2.19473905E-05,
                       5.78719895E-09, -5.85097740E-13, -2.47814273E+04,
                      -4.44147388E+01])))

species(name='ipropylOOH',
        atoms='C:3 H:7 O:2',
        thermo=(NASA([10.00, 405.01],
                     [ 3.30075623E+00,  7.58672756E-02, -3.35754269E-04,
                       8.05972164E-07, -6.68864582E-10, -1.52633901E+03,
                       1.43372849E+01]),
                NASA([405.01, 3000.00],
                     [ 2.51742509E+00,  3.72760950E-02, -2.12450220E-05,
                       5.83593926E-09, -6.22110649E-13, -1.08293140E+03,
                       2.20991392E+01])))

species(name='galdoxy',
        atoms='C:4 H:7 O:2',
        thermo=(NASA([10.00, 209.62],
                     [ 3.82641108E+00,  1.84758886E-02,  3.43073800E-04,
                      -1.82817005E-06,  2.98516720E-09, -1.77543385E+04,
                       1.17972706E+01]),
                NASA([209.62, 3000.00],
                     [ 4.22049016E+00,  4.03370149E-02, -2.36129482E-05,
                       6.72979114E-09, -7.47862493E-13, -1.78354082E+04,
                       8.97211724E+00])))

species(name='galkene',
        atoms='C:4 H:8 O:1',
        thermo=(NASA([10.00, 383.47],
                     [ 3.84035604E+00,  1.20378740E-02,  1.87486319E-04,
                      -5.44759148E-07,  4.80711015E-10, -2.05331397E+04,
                       1.02570291E+01]),
                NASA([383.47, 3000.00],
                     [ 4.00413385E+00,  3.79025144E-02, -2.15435710E-05,
                       6.15213311E-09, -6.97446345E-13, -2.07484290E+04,
                       6.98052628E+00])))

species(name='CH2O',
        atoms='C:1 H:2 O:1',
        thermo=(NASA([10.00, 601.31],
                     [ 4.03190845E+00, -1.93233367E-03,  8.89743345E-06,
                       2.98105926E-09, -7.90813886E-12, -1.42276270E+04,
                       3.47574660E+00]),
                NASA([601.31, 3000.00],
                     [ 1.40134195E+00,  9.48858016E-03, -4.43088317E-06,
                       9.48452194E-10, -7.43790219E-14, -1.38013869E+04,
                       1.57423780E+01])))

species(name='O2',
        atoms='O:2',
        thermo=(NASA([10.00, 605.96],
                     [ 3.50743498E+00, -4.43860349E-04,  1.45938058E-06,
                       1.61509333E-09, -2.32050052E-12, -9.24756224E+02,
                       4.72183634E+00]),
                NASA([605.96, 3000.00],
                     [ 2.87462882E+00,  2.17840991E-03, -1.18262921E-06,
                       2.86910493E-10, -2.53297146E-14, -8.19517838E+02,
                       7.69331810E+00])))

species(name='gRO2',
        atoms='C:4 H:9 O:3',
        thermo=(NASA([10.00, 177.33],
                     [ 3.70632176E+00,  3.49733664E-02,  4.64036392E-04,
                      -3.18637835E-06,  6.38178607E-09, -2.73385572E+04,
                       1.24459269E+01]),
                NASA([177.33, 3000.00],
                     [ 4.82062697E+00,  5.17179689E-02, -3.18386818E-05,
                       9.52247045E-09, -1.10180288E-12, -2.74439278E+04,
                       7.14082953E+00])))

species(name='gQOOHg',
        atoms='C:4 H:9 O:3',
        thermo=(NASA([10.00, 475.03],
                     [ 3.42273720E+00,  4.98344215E-02,  6.47820920E-05,
                      -2.49842966E-07,  1.98636537E-10, -1.99011071E+04,
                       1.41578583E+01]),
                NASA([475.03, 3000.00],
                     [ 5.94049074E+00,  5.53778585E-02, -3.71708255E-05,
                       1.17540477E-08, -1.40812095E-12, -2.04420614E+04,
                       7.09201218E-01])))

species(name='gR',
        atoms='C:4 H:9 O:1',
        thermo=(NASA([10.00, 638.24],
                     [ 3.37074633E+00,  5.17529751E-02, -6.54872940E-05,
                       6.88084237E-08, -3.21569794E-11, -9.64571864E+03,
                       1.14339669E+01]),
                NASA([638.24, 3000.00],
                     [ 3.99410860E+00,  4.06314915E-02, -2.23932510E-05,
                       6.08356263E-09, -6.49884708E-13, -9.57834393E+03,
                       9.85769960E+00])))

species(name='galdol',
        atoms='C:4 H:8 O:2',
        thermo=(NASA([10.00, 506.68],
                     [ 3.85380874E+00,  9.21272695E-03,  1.86712348E-04,
                      -3.96417049E-07,  2.55528268E-10, -4.65839128E+04,
                       1.24312743E+01]),
                NASA([506.68, 3000.00],
                     [ 1.49710213E+00,  5.65979142E-02, -3.87709084E-05,
                       1.23682052E-08, -1.48287964E-12, -4.67145222E+04,
                       1.85531759E+01])))

species(name='monosub_c4ether',
        atoms='C:4 H:8 O:2',
        thermo=(NASA([10.00, 380.36],
                     [ 3.47743996E+00,  6.08051311E-02, -2.78518945E-04,
                       8.23182713E-07, -7.87158031E-10, -3.40510484E+04,
                       1.06415154E+01]),
                NASA([380.36, 3000.00],
                     [-1.09346901E+00,  5.35985968E-02, -3.21081420E-05,
                       9.20818293E-09, -1.01830294E-12, -3.33034884E+04,
                       3.35312368E+01])))

species(name='HO2',
        atoms='H:1 O:2',
        thermo=(NASA([10.00, 891.11],
                     [ 4.02887004E+00, -1.75769289E-03,  1.08726004E-05,
                      -1.13812972E-08,  3.90113097E-12,  4.95165001E+02,
                       4.69302008E+00]),
                NASA([891.11, 3000.00],
                     [ 3.06571044E+00,  4.28505005E-03, -2.19325920E-06,
                       5.58882699E-10, -5.61246669E-14,  5.98557610E+02,
                       8.84564156E+00])))

species(name='gQOOH[O]',
        atoms='C:4 H:9 O:3',
        thermo=(NASA([10.00, 535.23],
                     [ 3.83107445E+00,  1.02302002E-02,  2.29377261E-04,
                      -4.59095575E-07,  2.77765018E-10, -1.94754671E+04,
                       1.41034859E+01]),
                NASA([535.23, 3000.00],
                     [-4.19283096E-01,  7.69784620E-02, -5.57279000E-05,
                       1.81378295E-08, -2.18295635E-12, -1.95215805E+04,
                       2.72711816E+01])))

#-------------------------------------------------------------------------------
# Reaction data
#-------------------------------------------------------------------------------

# Reaction 1
chebyshev_reaction('gQOOH[O] (+ M) <=> gRO2 (+ M)',
                   Tmin=180.0, Tmax=1500.0,
                   Pmin=(0.01, 'atm'), Pmax=(98.692, 'atm'),
                   coeffs=[[ 5.14800e+00,  9.59600e-01, -1.22100e-01,  1.24100e-02,  4.99200e-03, -2.95900e-04, -6.89700e-04, -2.03500e-05],
                           [-3.28900e+00,  1.06900e+00, -7.76000e-03, -9.09700e-03,  8.00800e-03,  1.05900e-04, -1.17700e-03, -2.72700e-05],
                           [-3.34100e+00,  1.15500e-01,  9.25400e-02,  1.90500e-02, -3.15900e-03, -1.63100e-03, -1.15300e-04,  1.81000e-04],
                           [-1.95700e+00, -1.48500e-01,  2.55500e-02,  2.84200e-02,  1.80400e-03, -3.20800e-03, -4.16000e-04,  3.84300e-04],
                           [-9.54700e-01, -4.04000e-02, -8.17000e-03,  6.07300e-03,  3.88500e-03, -3.10900e-04, -4.85100e-04, -7.58600e-07],
                           [-4.45500e-01,  4.88800e-02,  1.89600e-02, -5.20900e-03, -1.29300e-03,  1.23400e-03,  4.46700e-04, -1.85400e-04],
                           [-2.48500e-01,  2.59800e-02,  3.65600e-02,  3.58000e-03, -2.69300e-03,  3.54100e-05,  6.07800e-04,  3.34900e-05],
                           [-1.54700e-01, -4.71700e-02,  1.99200e-02,  1.15200e-02,  1.66800e-03, -3.90100e-04, -1.33500e-04,  3.84300e-05],
                           [-9.73300e-02, -8.77100e-02, -1.16700e-02,  8.71500e-03,  5.01200e-03,  7.84700e-04, -4.53600e-04, -2.04800e-04],
                           [-3.89300e-02, -7.81100e-02, -2.86700e-02,  4.17300e-04,  4.05700e-03,  1.59800e-03, -7.86000e-05, -2.59300e-04]])

# Reaction 2
chebyshev_reaction('gQOOHa (+ M) <=> gRO2 (+ M)',
                   Tmin=180.0, Tmax=1500.0,
                   Pmin=(0.01, 'atm'), Pmax=(98.692, 'atm'),
                   coeffs=[[-4.27300e-01,  5.83700e-01, -1.54700e-02,  4.06500e-03,  2.47600e-04, -6.42000e-04, -2.35300e-04, -1.38100e-05],
                           [ 4.47300e+00,  1.04700e+00, -6.87200e-03,  5.02400e-03,  4.55200e-04, -1.15200e-03, -4.33900e-04, -1.14200e-05],
                           [-1.82200e+00,  7.38700e-01,  4.75100e-02, -4.34600e-04, -5.04500e-05, -7.88600e-04, -3.17100e-04,  2.59000e-05],
                           [-1.55400e+00,  3.66200e-01,  9.37500e-02, -1.13300e-03, -1.36300e-03, -3.53400e-04, -1.13100e-04,  5.94400e-05],
                           [-1.18700e+00,  5.25000e-02,  1.02900e-01,  5.33600e-03, -2.68000e-03, -1.04400e-04,  1.40600e-04,  7.01700e-05],
                           [-7.53000e-01, -1.36300e-01,  7.36500e-02,  1.42600e-02, -2.53000e-03, -1.43700e-04,  3.32600e-04,  5.43300e-05],
                           [-3.78500e-01, -2.00200e-01,  2.62300e-02,  1.86700e-02, -3.74300e-04, -2.39000e-04,  3.36300e-04,  1.39200e-05],
                           [-1.92500e-01, -1.78500e-01, -1.53500e-02,  1.54800e-02,  2.65000e-03, -4.12200e-05,  1.28500e-04, -5.20600e-05],
                           [-4.01000e-02, -1.18500e-01, -3.74900e-02,  7.09500e-03,  4.67600e-03,  5.07700e-04, -1.61500e-04, -1.35100e-04],
                           [-2.66300e-03, -5.53700e-02, -3.95200e-02, -1.48100e-03,  4.60800e-03,  1.05200e-03, -3.47100e-04, -1.99200e-04]])

# Reaction 3
chebyshev_reaction('gQOOHg (+ M) <=> gRO2 (+ M)',
                   Tmin=180.0, Tmax=1500.0,
                   Pmin=(0.01, 'atm'), Pmax=(98.692, 'atm'),
                   coeffs=[[ 4.42600e+00,  8.77800e-01, -5.39500e-02,  7.80100e-03, -9.42900e-04, -3.69900e-04,  3.79300e-05,  3.83400e-05],
                           [-1.56700e+00,  1.29200e+00,  4.54600e-04, -3.12600e-03, -5.49300e-06, -6.59400e-04,  7.72500e-06,  8.13900e-05],
                           [-2.99900e+00,  4.52700e-01,  1.17700e-01, -4.19100e-03, -3.80900e-03,  1.28700e-04,  3.36900e-05,  2.46200e-05],
                           [-1.90300e+00, -7.27900e-02,  8.76200e-02,  1.87900e-02, -5.01300e-03, -1.04600e-03,  3.43200e-04,  4.06200e-05],
                           [-9.62600e-01, -1.80800e-01,  3.75300e-03,  2.20500e-02,  1.31000e-03, -1.90400e-03,  1.93600e-05,  1.69100e-04],
                           [-4.49800e-01, -1.00500e-01, -2.62600e-02,  4.13700e-03,  4.59200e-03, -9.92300e-05, -3.91400e-04,  6.05200e-05],
                           [-2.16400e-01, -2.74800e-02, -3.19900e-03, -6.46900e-03,  5.93100e-04,  1.55000e-03,  5.75400e-05, -1.67900e-04],
                           [-1.14300e-01, -2.05800e-02,  2.17400e-02,  5.76300e-04, -3.27900e-03,  6.30500e-04,  6.39200e-04, -1.18600e-04],
                           [-7.31100e-02, -4.96700e-02,  1.83000e-02,  1.24400e-02, -1.30500e-03, -1.13700e-03,  3.08000e-04,  9.22800e-05],
                           [-3.95800e-02, -6.95900e-02, -5.87200e-03,  1.46700e-02,  3.92400e-03, -1.18100e-03, -5.62500e-04,  7.69900e-05]])

# Reaction 4
chebyshev_reaction('gQOOHb (+ M) <=> gRO2 (+ M)',
                   Tmin=180.0, Tmax=1500.0,
                   Pmin=(0.01, 'atm'), Pmax=(98.692, 'atm'),
                   coeffs=[[-2.04700e+00,  1.71300e+00,  4.06500e-02,  1.60200e-02, -5.52200e-03, -1.84600e-03, -6.63700e-04, -1.77900e-05],
                           [-1.61800e+00,  1.45600e+00,  1.69500e-01,  3.28400e-02, -1.03700e-05, -3.10000e-03, -9.91600e-04, -6.19000e-05],
                           [-2.22000e+00, -1.30000e-01, -5.52300e-02,  2.89800e-02,  1.20700e-02,  2.22400e-03, -1.44900e-04, -2.42700e-04],
                           [-1.30900e+00, -2.56200e-01, -9.27000e-02, -7.61200e-03,  4.76600e-03,  3.24600e-03,  7.61200e-04, -7.56400e-05],
                           [-7.51800e-01,  1.29700e-02,  2.21500e-03, -8.40300e-03, -2.52900e-03,  2.17100e-04,  2.27300e-04,  1.04000e-05],
                           [-4.73000e-01,  8.47000e-02,  4.63300e-02,  1.43000e-03, -8.87900e-04, -4.94800e-04, -9.60100e-05, -4.10300e-05],
                           [-3.17000e-01,  2.33100e-02,  2.75400e-02,  4.35800e-03,  5.97100e-04,  3.94700e-04,  2.34800e-04,  1.68600e-05],
                           [-1.75800e-01, -5.71700e-02,  7.05400e-03,  3.47700e-03,  6.15600e-04,  6.10100e-04,  3.58900e-04,  4.00900e-05],
                           [-7.85600e-02, -8.39700e-02, -5.46100e-03,  4.12900e-03,  5.92300e-04,  4.03300e-04,  1.35100e-04, -2.87600e-05],
                           [-1.77000e-02, -7.21100e-02, -1.14600e-02,  4.15100e-03,  1.22300e-03,  2.99600e-04, -8.95200e-05, -8.57200e-05]])

# Reaction 5
chebyshev_reaction('O2 + gR (+ M) <=> gRO2 (+ M)',
                   Tmin=180.0, Tmax=1500.0,
                   Pmin=(0.01, 'atm'), Pmax=(98.692, 'atm'),
                   coeffs=[[ 1.08500e+01,  4.84000e-01, -8.22900e-02,  1.61000e-02, -3.64700e-03,  5.43600e-04, -1.75800e-04,  2.38800e-05],
                           [-1.78700e+00,  8.59200e-01, -1.18900e-01,  1.60200e-02, -2.02000e-03, -4.92900e-04,  8.62500e-05, -4.15400e-05],
                           [-1.18700e+00,  6.34100e-01, -4.26800e-02, -3.13200e-03,  1.88200e-03, -1.06100e-03,  1.61200e-04, -1.36200e-05],
                           [-8.45300e-01,  3.84500e-01,  2.25300e-02, -1.27200e-02,  2.05100e-03, -5.83200e-04,  5.53200e-05,  3.75000e-05],
                           [-5.91700e-01,  1.77100e-01,  5.51900e-02, -1.06100e-02, -1.46100e-04,  1.13800e-04,  1.88600e-05,  4.31500e-05],
                           [-3.95300e-01,  3.58000e-02,  5.75100e-02, -2.77600e-03, -1.94500e-03,  3.55800e-04,  1.10000e-04,  1.05000e-05],
                           [-2.48100e-01, -4.38200e-02,  4.19500e-02,  4.51000e-03, -2.05400e-03,  1.95400e-04,  1.97200e-04, -1.84600e-05],
                           [-1.42500e-01, -7.69500e-02,  2.05500e-02,  8.27100e-03, -8.29900e-04,  1.40200e-06,  1.76400e-04, -3.01200e-05],
                           [-7.07200e-02, -7.95300e-02,  1.09900e-03,  8.40500e-03,  7.88800e-04, -1.67400e-05,  6.41300e-05, -3.76700e-05],
                           [-2.54000e-02, -6.45900e-02, -1.27500e-02,  6.16200e-03,  2.06100e-03,  1.14000e-04, -6.76500e-05, -4.83700e-05]])
#  gRO2(+M) <=> gQOOH[O](+M)                           1.000e+00 0.000     0.000
#      TCHEB/ 180.000   1500.000 /
#      PCHEB/ 0.010     98.692   /
#      CHEB/ 10 8/
#      CHEB/ -5.962e+00   9.596e-01    -1.221e-01   1.241e-02    4.992e-03   /
#      CHEB/ -2.959e-04   -6.897e-04   -2.035e-05   4.794e+00    1.069e+00   /
#      CHEB/ -7.760e-03   -9.097e-03   8.008e-03    1.059e-04    -1.177e-03  /
#      CHEB/ -2.727e-05   -3.168e+00   1.155e-01    9.254e-02    1.905e-02   /
#      CHEB/ -3.159e-03   -1.631e-03   -1.153e-04   1.810e-04    -1.832e+00  /
#      CHEB/ -1.485e-01   2.555e-02    2.842e-02    1.804e-03    -3.208e-03  /
#      CHEB/ -4.160e-04   3.843e-04    -9.010e-01   -4.040e-02   -8.170e-03  /
#      CHEB/ 6.073e-03    3.885e-03    -3.109e-04   -4.851e-04   -7.586e-07  /
#      CHEB/ -4.264e-01   4.888e-02    1.896e-02    -5.209e-03   -1.293e-03  /
#      CHEB/ 1.234e-03    4.467e-04    -1.854e-04   -2.422e-01   2.598e-02   /
#      CHEB/ 3.656e-02    3.580e-03    -2.693e-03   3.541e-05    6.078e-04   /
#      CHEB/ 3.349e-05    -1.528e-01   -4.717e-02   1.992e-02    1.152e-02   /
#      CHEB/ 1.668e-03    -3.901e-04   -1.335e-04   3.843e-05    -9.687e-02  /
#      CHEB/ -8.771e-02   -1.167e-02   8.715e-03    5.012e-03    7.847e-04   /
#      CHEB/ -4.536e-04   -2.048e-04   -3.896e-02   -7.811e-02   -2.867e-02  /
#      CHEB/ 4.173e-04    4.057e-03    1.598e-03    -7.860e-05   -2.593e-04  /

# Reaction 6
chebyshev_reaction('gQOOHa (+ M) <=> gQOOH[O] (+ M)',
                   Tmin=180.0, Tmax=1500.0,
                   Pmin=(0.01, 'atm'), Pmax=(98.692, 'atm'),
                   coeffs=[[-9.87300e+00, -2.38900e-01, -2.11900e-01,  8.49800e-03,  1.01000e-02, -4.11000e-04, -1.37000e-03, -7.95400e-05],
                           [ 6.06600e+00,  1.93700e+00,  1.89600e-02, -2.50000e-02,  4.00700e-03,  2.04100e-03, -1.21700e-03, -3.44300e-04],
                           [-3.11700e+00,  4.44500e-01,  1.55500e-01,  2.68600e-02, -9.26300e-03, -3.69800e-03,  6.98200e-04,  5.35500e-04],
                           [-2.10300e+00,  3.08900e-02,  6.08200e-02,  2.74500e-02,  2.44500e-03, -4.03600e-03, -6.30100e-04,  6.15400e-04],
                           [-1.14300e+00,  2.53800e-02,  3.99400e-02, -4.08300e-03,  1.95900e-03,  1.28000e-03, -3.95900e-04, -1.63000e-04],
                           [-5.92200e-01,  7.27700e-03,  6.76600e-02, -5.23400e-03, -6.10200e-03,  1.80500e-03,  9.62800e-04, -1.72500e-04],
                           [-3.20900e-01, -7.35000e-02,  6.02000e-02,  1.44700e-02, -5.34100e-03, -7.54000e-04,  8.75000e-04,  1.68600e-04],
                           [-1.77300e-01, -1.44500e-01,  1.25900e-02,  2.31100e-02,  2.49500e-03, -1.12900e-03, -1.25700e-04,  5.79000e-05],
                           [-8.88400e-02, -1.44100e-01, -3.65100e-02,  1.29200e-02,  7.70600e-03,  7.45100e-04, -5.83000e-04, -2.82900e-04],
                           [-1.90900e-02, -8.78300e-02, -5.24900e-02, -3.08500e-03,  6.22900e-03,  2.06600e-03, -3.00000e-04, -3.66300e-04]])

# Reaction 7
chebyshev_reaction('gQOOHg (+ M) <=> gQOOH[O] (+ M)',
                   Tmin=180.0, Tmax=1500.0,
                   Pmin=(0.01, 'atm'), Pmax=(98.692, 'atm'),
                   coeffs=[[-3.67200e+00,  3.49400e-01, -3.36100e-01,  1.35500e-02,  1.62900e-02, -1.14700e-03, -1.80300e-03,  6.95700e-05],
                           [-1.73600e+00,  1.93600e+00,  1.42400e-01, -4.75800e-02, -4.84900e-03,  5.19700e-03,  6.22100e-05, -6.74800e-04],
                           [-4.03200e+00,  4.56000e-02,  2.17700e-01,  4.35100e-02, -1.53400e-02, -5.62500e-03,  1.74900e-03,  9.20000e-04],
                           [-2.25700e+00, -3.68100e-01,  1.64600e-02,  4.88600e-02,  3.46900e-03, -5.25800e-03, -7.23900e-04,  6.60800e-04],
                           [-9.40100e-01, -1.70200e-01, -6.21100e-02,  3.40700e-03,  7.09300e-03,  6.61700e-04, -7.05800e-04, -2.33100e-04],
                           [-3.29400e-01,  5.43600e-02, -2.08500e-02, -1.85400e-02, -8.02700e-04,  2.27200e-03,  4.68700e-04, -2.46700e-04],
                           [-1.45400e-01,  9.60000e-02,  3.85100e-02, -8.61700e-03, -5.59300e-03,  6.46200e-04,  8.24900e-04,  1.18700e-05],
                           [-1.16400e-01,  7.46300e-03,  5.03800e-02,  1.09500e-02, -3.34900e-03, -9.24500e-04,  4.26300e-04,  7.61600e-05],
                           [-1.05400e-01, -7.86100e-02,  1.70200e-02,  1.90300e-02,  2.47100e-03, -1.03500e-03, -2.36800e-04, -5.60000e-06],
                           [-6.53500e-02, -1.03800e-01, -2.07800e-02,  1.26600e-02,  5.98300e-03, -2.49400e-05, -6.19500e-04, -1.10900e-04]])

# Reaction 8
chebyshev_reaction('gQOOHb (+ M) <=> gQOOH[O] (+ M)',
                   Tmin=180.0, Tmax=1500.0,
                   Pmin=(0.01, 'atm'), Pmax=(98.692, 'atm'),
                   coeffs=[[-1.09700e+01,  1.72500e+00, -6.84600e-02, -2.46600e-02, -7.95500e-03, -1.12500e-03, -5.26400e-04,  1.11300e-04],
                           [-8.39700e-01,  1.45300e+00,  1.88100e-01,  7.35000e-02,  1.44300e-02, -4.29500e-03, -3.23300e-03, -2.71500e-04],
                           [-3.23900e+00, -6.45700e-01, -9.02700e-02,  4.07400e-02,  1.58200e-02,  4.50400e-03,  5.84500e-04, -3.13200e-04],
                           [-1.75300e+00, -3.56900e-01, -9.08300e-02, -5.56700e-03, -6.16000e-05,  6.94100e-05,  8.18800e-04,  4.48600e-04],
                           [-7.69000e-01,  8.98600e-02, -1.15300e-02, -1.33000e-02, -3.17500e-03, -1.16300e-03, -8.72200e-05,  1.19900e-04],
                           [-3.61400e-01,  2.07300e-01,  4.28500e-02, -8.52800e-03, -2.84600e-03,  7.30100e-04,  3.45300e-04, -1.73800e-04],
                           [-2.29400e-01,  9.67800e-02,  5.32400e-02,  4.30100e-03, -1.16400e-03,  6.23900e-04,  5.31200e-04, -2.08800e-05],
                           [-1.69000e-01, -4.58300e-02,  2.72400e-02,  1.10000e-02,  1.71100e-03,  2.41200e-04,  4.72500e-05,  4.88900e-05],
                           [-1.12200e-01, -1.07100e-01, -7.40200e-03,  7.10700e-03,  3.14900e-03,  7.63100e-04, -1.91800e-04, -1.24100e-04],
                           [-4.69200e-02, -9.41900e-02, -2.43800e-02, -5.98600e-05,  2.10800e-03,  1.23300e-03,  3.48500e-05, -2.09400e-04]])

# Reaction 9
chebyshev_reaction('O2 + gR (+ M) <=> gQOOH[O] (+ M)',
                   Tmin=180.0, Tmax=1500.0,
                   Pmin=(0.01, 'atm'), Pmax=(98.692, 'atm'),
                   coeffs=[[ 3.76100e+00,  8.07000e-01, -3.78600e-01, -7.62800e-02,  1.81100e-02,  1.67100e-02, -3.00100e-03, -3.25000e-03],
                           [-3.18100e+00,  5.20900e-01,  1.36400e-01,  1.00900e-01, -2.19300e-02, -1.91000e-02,  2.40000e-03,  4.17100e-03],
                           [-2.08100e+00,  2.03200e-01, -5.16000e-02,  3.24500e-02,  9.75700e-03, -1.35900e-03, -8.46900e-04, -7.23100e-04],
                           [-1.12500e+00,  1.84200e-01, -6.24500e-02, -1.64200e-02,  7.42000e-03,  5.17800e-04,  5.05200e-05,  1.34700e-04],
                           [-5.34900e-01,  2.37200e-01,  1.67200e-02, -3.14600e-02, -2.15600e-03,  8.41900e-04,  2.24600e-04,  1.28000e-04],
                           [-2.69600e-01,  1.92800e-01,  7.82400e-02, -1.48300e-02, -7.12200e-03,  3.43800e-04,  3.00700e-04, -4.60600e-05],
                           [-1.86200e-01,  6.80000e-02,  8.47200e-02,  7.28800e-03, -5.45700e-03, -4.72000e-04,  4.73600e-04, -3.30000e-05],
                           [-1.46800e-01, -5.81800e-02,  4.40600e-02,  1.83700e-02,  6.93600e-04, -6.32400e-04, -7.75600e-05,  2.89600e-05],
                           [-1.08000e-01, -1.10500e-01, -3.11200e-03,  1.29900e-02,  4.08000e-03,  6.13100e-04, -1.63900e-04, -1.61400e-04],
                           [-5.03400e-02, -9.82900e-02, -2.99500e-02,  3.11900e-03,  3.66200e-03,  1.20000e-03, -3.44000e-05, -1.74100e-04]])
#  gRO2(+M) <=> gQOOHa(+M)                             1.000e+00 0.000     0.000
#      TCHEB/ 180.000   1500.000 /
#      PCHEB/ 0.010     98.692   /
#      CHEB/ 10 8/
#      CHEB/ -1.412e+00   5.837e-01    -1.547e-02   4.065e-03    2.476e-04   /
#      CHEB/ -6.420e-04   -2.353e-04   -1.381e-05   5.224e+00    1.047e+00   /
#      CHEB/ -6.872e-03   5.024e-03    4.552e-04    -1.152e-03   -4.339e-04  /
#      CHEB/ -1.142e-05   -1.660e+00   7.387e-01    4.751e-02    -4.346e-04  /
#      CHEB/ -5.045e-05   -7.886e-04   -3.171e-04   2.590e-05    -1.479e+00  /
#      CHEB/ 3.662e-01    9.375e-02    -1.133e-03   -1.363e-03   -3.534e-04  /
#      CHEB/ -1.131e-04   5.944e-05    -1.159e+00   5.250e-02    1.029e-01   /
#      CHEB/ 5.336e-03    -2.680e-03   -1.044e-04   1.406e-04    7.017e-05   /
#      CHEB/ -7.432e-01   -1.363e-01   7.365e-02    1.426e-02    -2.530e-03  /
#      CHEB/ -1.437e-04   3.326e-04    5.433e-05    -3.756e-01   -2.002e-01  /
#      CHEB/ 2.623e-02    1.867e-02    -3.743e-04   -2.390e-04   3.363e-04   /
#      CHEB/ 1.392e-05    -1.919e-01   -1.785e-01   -1.535e-02   1.548e-02   /
#      CHEB/ 2.650e-03    -4.122e-05   1.285e-04    -5.206e-05   -4.010e-02  /
#      CHEB/ -1.185e-01   -3.749e-02   7.095e-03    4.676e-03    5.077e-04   /
#      CHEB/ -1.615e-04   -1.351e-04   -2.781e-03   -5.537e-02   -3.952e-02  /
#      CHEB/ -1.481e-03   4.608e-03    1.052e-03    -3.471e-04   -1.992e-04  /
#  gQOOH[O](+M) <=> gQOOHa(+M)                         1.000e+00 0.000     0.000
#      TCHEB/ 180.000   1500.000 /
#      PCHEB/ 0.010     98.692   /
#      CHEB/ 10 8/
#      CHEB/ 2.521e-01    -2.389e-01   -2.119e-01   8.498e-03    1.010e-02   /
#      CHEB/ -4.110e-04   -1.370e-03   -7.954e-05   -1.267e+00   1.937e+00   /
#      CHEB/ 1.896e-02    -2.500e-02   4.007e-03    2.041e-03    -1.217e-03  /
#      CHEB/ -3.443e-04   -3.129e+00   4.445e-01    1.555e-01    2.686e-02   /
#      CHEB/ -9.263e-03   -3.698e-03   6.982e-04    5.355e-04    -2.154e+00  /
#      CHEB/ 3.089e-02    6.082e-02    2.745e-02    2.445e-03    -4.036e-03  /
#      CHEB/ -6.301e-04   6.154e-04    -1.169e+00   2.538e-02    3.994e-02   /
#      CHEB/ -4.083e-03   1.959e-03    1.280e-03    -3.959e-04   -1.630e-04  /
#      CHEB/ -6.015e-01   7.277e-03    6.766e-02    -5.234e-03   -6.102e-03  /
#      CHEB/ 1.805e-03    9.628e-04    -1.725e-04   -3.242e-01   -7.350e-02  /
#      CHEB/ 6.020e-02    1.447e-02    -5.341e-03   -7.540e-04   8.750e-04   /
#      CHEB/ 1.686e-04    -1.786e-01   -1.445e-01   1.259e-02    2.311e-02   /
#      CHEB/ 2.495e-03    -1.129e-03   -1.257e-04   5.790e-05    -8.931e-02  /
#      CHEB/ -1.441e-01   -3.651e-02   1.292e-02    7.706e-03    7.451e-04   /