units(length='cm', time='s', quantity='mol', act_energy='kcal/mol')

ideal_gas(name='gas',
          elements="H D T C Ci O Oi N Ne Ar He Si S F Cl Br I X",
          species="""propene3ol       OH               disub_c4ether
                     H2O              disub_epoxy      gQOOHa
                     propene1ol       gQOOHb           ipropylOOH
                     galdoxy          galkene          CH2O
                     O2               gRO2             gQOOHg
                     gR               galdol           monosub_c4ether
                     HO2              gQOOH[O]""",
          reactions='all',
          initial_state=state(temperature=300.0, pressure=OneAtm))

#-------------------------------------------------------------------------------
# Element data
#-------------------------------------------------------------------------------

element(symbol='Ci', atomic_mass=13.003)
element(symbol='D', atomic_mass=2.014)
element(symbol='Oi', atomic_mass=18.0)
element(symbol='T', atomic_mass=3.016)
element(symbol='X', atomic_mass=195.083)
#-------------------------------------------------------------------------------
# Species data
#-------------------------------------------------------------------------------

species(name='propene3ol',
        atoms='C:3 H:6 O:1',
        thermo=(NASA([10.00, 444.81],
                     [ 3.92769709E+00,  4.89977303E-03,  1.13094874E-04,
                      -2.59008187E-07,  1.86205760E-10, -1.63430976E+04,
                       9.90805416E+00]),
                NASA([444.81, 3000.00],
                     [ 2.61720343E+00,  3.01777872E-02, -1.76511625E-05,
                       5.14864061E-09, -5.91153761E-13, -1.63599981E+04,
                       1.36683107E+01])))

species(name='OH',
        atoms='H:1 O:1',
        thermo=(NASA([10.00, 984.14],
                     [ 3.49686242E+00,  1.83973160E-04, -9.97634499E-07,
                       1.56942783E-09, -6.10128175E-13,  3.41673934E+03,
                       1.48093120E+00]),
                NASA([984.14, 3000.00],
                     [ 3.45221464E+00, -2.95124034E-04,  7.39418622E-07,
                      -2.89309866E-10,  3.53041498E-14,  3.45751599E+03,
                       1.85813897E+00])))

species(name='disub_c4ether',
        atoms='C:4 H:8 O:2',
        thermo=(NASA([10.00, 413.50],
                     [ 3.78241323E+00,  1.89501763E-02,  8.65302396E-05,
                      -1.80580575E-07,  1.13656264E-10, -3.96116190E+04,
                       1.09982450E+01]),
                NASA([413.50, 3000.00],
                     [ 4.29420885E-01,  5.13851903E-02, -3.11292293E-05,
                       9.11498284E-09, -1.03192718E-12, -3.93343246E+04,
                       2.42134976E+01])))

species(name='H2O',
        atoms='H:2 O:1',
        thermo=(NASA([10.00, 773.84],
                     [ 4.00473541E+00, -2.39729134E-04,  8.11862955E-07,
                       1.47891862E-09, -1.19783539E-12, -3.03533807E+04,
                      -9.96254147E-02]),
                NASA([773.84, 3000.00],
                     [ 3.52133374E+00,  1.05377009E-03,  6.40722099E-07,
                      -3.86240235E-10,  5.49243294E-14, -3.02424794E+04,
                       2.34173094E+00])))

species(name='disub_epoxy',
        atoms='C:4 H:8 O:2',
        thermo=(NASA([10.00, 549.41],
                     [ 3.89863211E+00,  5.97532637E-03,  1.66685676E-04,
                      -3.10743768E-07,  1.78330192E-10, -3.67266747E+04,
                       1.13847308E+01]),
                NASA([549.41, 3000.00],
                     [-6.40277648E-01,  6.05960003E-02, -4.13427220E-05,
                       1.31555461E-08, -1.57685017E-12, -3.65535578E+04,
                       2.76005436E+01])))

species(name='gQOOHa',
        atoms='C:4 H:9 O:3',
        thermo=(NASA([10.00, 160.74],
                     [ 3.80808147E+00,  2.31043884E-02,  5.26945984E-04,
                      -3.11500696E-06,  6.03881958E-09, -2.47440793E+04,
                       1.17645316E+01]),
                NASA([160.74, 3000.00],
                     [ 2.90630300E+00,  6.50241173E-02, -4.60073244E-05,
                       1.51330930E-08, -1.87074267E-12, -2.47402547E+04,
                       1.36838819E+01])))

species(name='propene1ol',
        atoms='C:3 H:6 O:1',
        thermo=(NASA([10.00, 459.42],
                     [ 3.91245344E+00,  5.85800161E-03,  1.15412006E-04,
                      -2.68014417E-07,  1.91800131E-10, -1.94023721E+04,
                       8.14807684E+00]),
                NASA([459.42, 3000.00],
                     [ 3.14049093E+00,  2.95550898E-02, -1.73843684E-05,
                       5.11506211E-09, -5.92966137E-13, -1.95105946E+04,
                       9.32215170E+00])))

species(name='gQOOHb',
        atoms='C:4 H:9 O:3',
        thermo=(NASA([10.00, 1018.67],
                     [ 3.99028351E+00,  4.29665712E-02,  2.28338778E-05,
                      -5.67914439E-08,  2.29383258E-11, -2.48411827E+04,
                       1.20326731E+01]),
                NASA([1018.67, 3000.00],
                     [ 1.38304153E+01,  3.88527019E-02, -2.19473905E-05,
                       5.78719895E-09, -5.85097740E-13, -2.86372675E+04,
                      -4.44147388E+01])))

species(name='ipropylOOH',
        atoms='C:3 H:7 O:2',
        thermo=(NASA([10.00, 405.01],
                     [ 3.30075623E+00,  7.58672756E-02, -3.35754269E-04,
                       8.05972164E-07, -6.68864582E-10, -7.08165257E+02,
                       1.43372849E+01]),
                NASA([405.01, 3000.00],
                     [ 2.51742509E+00,  3.72760950E-02, -2.12450220E-05,
                       5.83593926E-09, -6.22110649E-13, -2.64757651E+02,
                       2.20991392E+01])))

species(name='galdoxy',
        atoms='C:4 H:7 O:2',
        thermo=(NASA([10.00, 209.62],
                     [ 3.82641108E+00,  1.84758886E-02,  3.43073800E-04,
                      -1.82817005E-06,  2.98516720E-09, -1.76368015E+04,
                       1.17972706E+01]),
                NASA([209.62, 3000.00],
                     [ 4.22049016E+00,  4.03370149E-02, -2.36129482E-05,
                       6.72979114E-09, -7.47862493E-13, -1.77178713E+04,
                       8.97211724E+00])))

species(name='galkene',
        atoms='C:4 H:8 O:1',
        thermo=(NASA([10.00, 383.47],
                     [ 3.84035604E+00,  1.20378740E-02,  1.87486319E-04,
                      -5.44759148E-07,  4.80711015E-10, -2.08912051E+04,
                       1.02570291E+01]),
                NASA([383.47, 3000.00],
                     [ 4.00413385E+00,  3.79025144E-02, -2.15435710E-05,
                       6.15213311E-09, -6.97446345E-13, -2.11064944E+04,
                       6.98052628E+00])))

species(name='CH2O',
        atoms='C:1 H:2 O:1',
        thermo=(NASA([10.00, 601.31],
                     [ 4.03190845E+00, -1.93233367E-03,  8.89743345E-06,
                       2.98105926E-09, -7.90813886E-12, -1.42276270E+04,
                       3.47574660E+00]),
                NASA([601.31, 3000.00],
                     [ 1.40134195E+00,  9.48858016E-03, -4.43088317E-06,
                       9.48452194E-10, -7.43790219E-14, -1.38013869E+04,
                       1.57423780E+01])))

species(name='O2',
        atoms='O:2',
        thermo=(NASA([10.00, 605.96],
                     [ 3.50743498E+00, -4.43860349E-04,  1.45938058E-06,
                       1.61509333E-09, -2.32050052E-12, -9.24756224E+02,
                       4.72183634E+00]),
                NASA([605.96, 3000.00],
                     [ 2.87462882E+00,  2.17840991E-03, -1.18262921E-06,
                       2.86910493E-10, -2.53297146E-14, -8.19517838E+02,
                       7.69331810E+00])))

species(name='gRO2',
        atoms='C:4 H:9 O:3',
        thermo=(NASA([10.00, 177.33],
                     [ 3.70632176E+00,  3.49733664E-02,  4.64036392E-04,
                      -3.18637835E-06,  6.38178607E-09, -2.86550486E+04,
                       1.24459269E+01]),
                NASA([177.33, 3000.00],
                     [ 4.82062697E+00,  5.17179689E-02, -3.18386818E-05,
                       9.52247045E-09, -1.10180288E-12, -2.87604192E+04,
                       7.14082953E+00])))

species(name='gQOOHg',
        atoms='C:4 H:9 O:3',
        thermo=(NASA([10.00, 475.03],
                     [ 3.42273720E+00,  4.98344215E-02,  6.47820920E-05,
                      -2.49842966E-07,  1.98636537E-10, -2.12459931E+04,
                       1.41578583E+01]),
                NASA([475.03, 3000.00],
                     [ 5.94049074E+00,  5.53778585E-02, -3.71708255E-05,
                       1.17540477E-08, -1.40812095E-12, -2.17869473E+04,
                       7.09201218E-01])))

species(name='gR',
        atoms='C:4 H:9 O:1',
        thermo=(NASA([10.00, 638.24],
                     [ 3.37074633E+00,  5.17529751E-02, -6.54872940E-05,
                       6.88084237E-08, -3.21569794E-11, -1.25326437E+04,
                       1.14339669E+01]),
                NASA([638.24, 3000.00],
                     [ 3.99410860E+00,  4.06314915E-02, -2.23932510E-05,
                       6.08356263E-09, -6.49884708E-13, -1.24652689E+04,
                       9.85769960E+00])))

species(name='galdol',
        atoms='C:4 H:8 O:2',
        thermo=(NASA([10.00, 506.68],
                     [ 3.85380874E+00,  9.21272695E-03,  1.86712348E-04,
                      -3.96417049E-07,  2.55528268E-10, -4.53062116E+04,
                       1.24312743E+01]),
                NASA([506.68, 3000.00],
                     [ 1.49710213E+00,  5.65979142E-02, -3.87709084E-05,
                       1.23682052E-08, -1.48287964E-12, -4.54368210E+04,
                       1.85531759E+01])))

species(name='monosub_c4ether',
        atoms='C:4 H:8 O:2',
        thermo=(NASA([10.00, 380.36],
                     [ 3.47743996E+00,  6.08051311E-02, -2.78518945E-04,
                       8.23182713E-07, -7.87158031E-10, -3.29482777E+04,
                       1.06415154E+01]),
                NASA([380.36, 3000.00],
                     [-1.09346901E+00,  5.35985968E-02, -3.21081420E-05,
                       9.20818293E-09, -1.01830294E-12, -3.22007177E+04,
                       3.35312368E+01])))

species(name='HO2',
        atoms='H:1 O:2',
        thermo=(NASA([10.00, 891.11],
                     [ 4.02887004E+00, -1.75769289E-03,  1.08726004E-05,
                      -1.13812972E-08,  3.90113097E-12,  4.95165001E+02,
                       4.69302008E+00]),
                NASA([891.11, 3000.00],
                     [ 3.06571044E+00,  4.28505005E-03, -2.19325920E-06,
                       5.58882699E-10, -5.61246669E-14,  5.98557610E+02,
                       8.84564156E+00])))

species(name='gQOOH[O]',
        atoms='C:4 H:9 O:3',
        thermo=(NASA([10.00, 535.23],
                     [ 3.83107445E+00,  1.02302002E-02,  2.29377261E-04,
                      -4.59095575E-07,  2.77765018E-10, -1.83509780E+04,
                       1.41034859E+01]),
                NASA([535.23, 3000.00],
                     [-4.19283096E-01,  7.69784620E-02, -5.57279000E-05,
                       1.81378295E-08, -2.18295635E-12, -1.83970914E+04,
                       2.72711816E+01])))

#-------------------------------------------------------------------------------
# Reaction data
#-------------------------------------------------------------------------------

# Reaction 1
chebyshev_reaction('gQOOH[O] (+ M) <=> gRO2 (+ M)',
                   Tmin=180.0, Tmax=1500.0,
                   Pmin=(0.01, 'atm'), Pmax=(98.692, 'atm'),
                   coeffs=[[ 4.57800e+00,  1.25800e+00, -2.01300e-01,  3.41100e-02,  6.94000e-03, -1.60800e-03, -1.27400e-03,  3.75300e-04],
                           [-5.69400e+00,  9.30100e-01,  5.54200e-02,  9.45500e-03, -1.19500e-03,  9.25700e-05, -3.63400e-04,  1.31400e-04],
                           [-3.94200e+00, -9.59900e-03,  7.35500e-02,  3.86200e-02, -5.49900e-03, -4.70500e-03,  1.03900e-03,  7.43200e-04],
                           [-2.03600e+00, -5.43800e-02,  1.82700e-02,  4.90300e-03,  3.18700e-03, -5.13200e-04, -3.02900e-04,  1.05900e-04],
                           [-9.41800e-01,  3.89500e-02,  3.37900e-02, -1.19600e-02, -4.75000e-04,  2.65000e-03,  3.09900e-04, -4.35400e-04],
                           [-4.74700e-01, -3.10900e-02,  3.15400e-02,  5.03600e-03, -2.96600e-04,  4.87300e-04,  2.91100e-04, -2.81700e-05],
                           [-2.57100e-01, -1.17500e-01, -1.20600e-02,  1.22200e-02,  4.80200e-03, -8.93400e-05, -4.59300e-04,  1.33400e-05],
                           [-1.14200e-01, -1.03000e-01, -4.12700e-02,  8.70200e-04,  4.73600e-03,  1.22600e-03, -2.46000e-04, -2.11700e-04],
                           [-2.48400e-02, -3.08300e-02, -3.62400e-02, -7.99700e-03,  1.15800e-03,  9.96900e-04,  2.92000e-04, -7.97700e-05],
                           [ 1.62500e-02,  1.05300e-02, -1.55900e-02, -8.65100e-03, -8.04200e-04,  4.45200e-04,  1.31100e-04,  5.68100e-05]])

# Reaction 2
chebyshev_reaction('gQOOHa (+ M) <=> gRO2 (+ M)',
                   Tmin=180.0, Tmax=1500.0,
                   Pmin=(0.01, 'atm'), Pmax=(98.692, 'atm'),
                   coeffs=[[ 3.38400e+00,  1.30400e+00, -7.70600e-02,  2.20500e-02, -1.50400e-03, -6.56500e-04, -1.05000e-05, -9.88900e-05],
                           [-5.89900e+00,  1.28500e+00,  1.07100e-01, -9.52400e-03,  5.96800e-03, -6.94300e-04, -1.00300e-03,  1.23600e-04],
                           [-3.89800e+00, -5.65100e-02,  8.20800e-02,  3.05800e-02, -1.51800e-03, -2.01900e-04, -3.89500e-04, -1.79000e-04],
                           [-1.73000e+00, -9.40100e-02, -7.55700e-02,  2.10300e-02,  1.07400e-02, -2.03300e-03, -5.56200e-04,  7.57500e-05],
                           [-8.42300e-01,  8.39600e-02, -1.02000e-02, -1.20600e-02,  4.55400e-03,  2.35700e-03, -7.28200e-04, -2.67400e-04],
                           [-4.92100e-01, -4.92800e-02,  4.88600e-02,  1.36300e-02, -3.79200e-03,  2.80600e-04,  5.55500e-04, -2.93900e-04],
                           [-2.69200e-01, -1.40100e-01, -2.40000e-02,  2.39000e-02,  8.65500e-03, -1.73300e-03, -6.07300e-04,  1.20900e-04],
                           [-1.15600e-01, -9.51300e-02, -5.63100e-02, -7.73800e-03,  9.87400e-03,  3.53100e-03, -1.05300e-03, -4.91200e-04],
                           [-1.87900e-02, -2.21100e-02, -2.77500e-02, -1.54700e-02, -1.98900e-03,  3.06200e-03,  9.41900e-04, -4.94000e-04],
                           [ 4.92300e-03,  1.12500e-02, -1.11800e-02, -3.15400e-03, -1.74100e-03, -1.18600e-03,  4.55200e-04,  3.24700e-04]])

# Reaction 3
chebyshev_reaction('gQOOHg (+ M) <=> gRO2 (+ M)',
                   Tmin=180.0, Tmax=1500.0,
                   Pmin=(0.01, 'atm'), Pmax=(98.692, 'atm'),
                   coeffs=[[ 4.37100e+00,  1.08300e+00, -7.75900e-02,  1.85500e-02, -6.12200e-04, -8.18300e-04, -1.44400e-04,  3.15000e-06],
                           [-2.95800e+00,  1.38100e+00,  4.06400e-02,  4.94700e-03,  5.03000e-04, -1.01800e-03, -3.76500e-04, -5.11700e-07],
                           [-3.36200e+00,  2.84500e-01,  1.48700e-01,  2.15200e-02, -5.75900e-03, -1.07000e-03,  8.41200e-05, -2.51200e-05],
                           [-2.03900e+00, -2.05800e-01,  6.03100e-02,  3.83600e-02,  1.34500e-03, -2.75000e-03, -2.62800e-04,  1.52400e-04],
                           [-9.94700e-01, -2.27900e-01, -2.39000e-02,  2.02900e-02,  8.08600e-03, -4.80300e-04, -8.85900e-04, -7.73900e-05],
                           [-4.26600e-01, -1.32100e-01, -3.09000e-02,  2.10200e-03,  4.10800e-03,  1.73400e-03, -1.83800e-04, -3.58100e-04],
                           [-1.76500e-01, -7.10500e-02, -1.36100e-02,  3.39500e-03, -1.98800e-04,  4.39000e-04,  4.38100e-04, -1.32300e-04],
                           [-7.28700e-02, -5.21200e-02, -1.37000e-02,  9.28100e-03,  2.22800e-03, -1.04600e-03, -1.81000e-04,  9.14000e-05],
                           [-3.48400e-02, -4.15200e-02, -2.70500e-02,  5.06700e-03,  6.17800e-03,  1.00100e-04, -8.53100e-04, -1.24600e-04],
                           [-8.77300e-03, -2.04000e-02, -3.24700e-02, -6.64900e-03,  5.21300e-03,  2.17200e-03, -4.24700e-04, -3.70900e-04]])

# Reaction 4
chebyshev_reaction('gQOOHb (+ M) <=> gRO2 (+ M)',
                   Tmin=180.0, Tmax=1500.0,
                   Pmin=(0.01, 'atm'), Pmax=(98.692, 'atm'),
                   coeffs=[[-1.58700e-01,  1.02500e+00, -8.82900e-03, -9.36100e-03,  1.04900e-03,  4.57500e-04, -1.75400e-04, -3.73500e-05],
                           [ 1.30700e+00,  1.53700e+00,  3.75000e-02, -1.18400e-02,  2.20400e-03, -1.43600e-04, -1.80200e-04, -2.97900e-05],
                           [-2.63900e+00,  5.55300e-01,  8.62600e-02,  1.52500e-02,  4.16300e-04, -1.40600e-03, -1.51500e-05,  4.87100e-05],
                           [-1.77700e+00, -1.14900e-01,  5.39700e-02,  3.26000e-02,  1.79800e-03, -1.61400e-03,  5.52200e-06,  2.49100e-05],
                           [-1.07100e+00, -2.81300e-01, -4.31600e-03,  2.41500e-02,  3.82500e-03, -1.75300e-04, -2.22600e-05, -9.67000e-05],
                           [-5.21100e-01, -2.01000e-01, -3.04000e-02,  7.97000e-03,  2.90500e-03,  1.05800e-03,  1.15400e-04, -1.69100e-04],
                           [-2.05200e-01, -1.06100e-01, -2.99300e-02,  1.23000e-03,  1.49000e-03,  8.29000e-04,  1.37800e-04, -1.17400e-04],
                           [-7.50500e-02, -5.18000e-02, -2.69400e-02,  9.34200e-04,  2.09800e-03,  2.95800e-04, -1.21700e-04, -7.41100e-05],
                           [-1.78200e-02, -1.91200e-02, -2.53700e-02, -1.54100e-03,  3.11600e-03,  5.70300e-04, -3.06700e-04, -1.12200e-04],
                           [ 2.07600e-02,  4.74700e-03, -2.01000e-02, -6.49400e-03,  2.20300e-03,  1.14200e-03, -1.38900e-04, -1.21900e-04]])

# Reaction 5
chebyshev_reaction('O2 + gR (+ M) <=> gRO2 (+ M)',
                   Tmin=180.0, Tmax=1500.0,
                   Pmin=(0.01, 'atm'), Pmax=(98.692, 'atm'),
                   coeffs=[[ 8.24200e+00,  1.21500e+00, -3.67100e-01,  1.01600e-01, -2.47300e-02,  4.84700e-03, -4.46300e-04, -1.97300e-04],
                           [-2.67500e+00,  1.43800e+00, -1.74900e-01, -4.05200e-02,  3.27200e-02, -1.03900e-02,  1.72500e-03,  8.23100e-05],
                           [-1.68000e+00,  7.24100e-01,  5.75900e-02, -6.55300e-02,  1.58100e-02,  4.53000e-04, -1.36100e-03,  4.07200e-04],
                           [-1.05400e+00,  2.19700e-01,  1.36300e-01, -3.74700e-02, -2.66200e-03,  3.68800e-03, -4.35100e-04, -2.00700e-04],
                           [-6.39400e-01, -3.88800e-02,  1.08800e-01, -3.60700e-04, -9.12700e-03,  1.32000e-03,  8.76500e-04, -2.41100e-04],
                           [-3.62600e-01, -1.34800e-01,  5.14500e-02,  1.85500e-02, -5.16400e-03, -1.49500e-03,  8.38200e-04,  1.20200e-04],
                           [-1.84400e-01, -1.37900e-01,  2.04100e-03,  1.96400e-02,  1.16000e-03, -2.10100e-03, -2.67100e-05,  2.77700e-04],
                           [-7.68900e-02, -9.85200e-02, -2.61200e-02,  1.08800e-02,  5.07100e-03, -9.85500e-04, -7.04900e-04,  1.11300e-04],
                           [-1.89400e-02, -4.83600e-02, -3.38500e-02,  4.17400e-04,  5.32000e-03,  4.84000e-04, -7.94200e-04, -1.34000e-04],
                           [ 8.02200e-03, -7.97100e-03, -2.62300e-02, -7.36800e-03,  3.08500e-03,  1.31500e-03, -4.58500e-04, -2.35600e-04]])
#  gRO2(+M) <=> gQOOH[O](+M)                           1.000e+00 0.000     0.000
#      TCHEB/ 180.000   1500.000 /
#      PCHEB/ 0.010     98.692   /
#      CHEB/ 10 8/
#      CHEB/ -9.830e+00   1.258e+00    -2.013e-01   3.411e-02    6.940e-03   /
#      CHEB/ -1.608e-03   -1.274e-03   3.753e-04    4.981e+00    9.301e-01   /
#      CHEB/ 5.542e-02    9.455e-03    -1.195e-03   9.257e-05    -3.634e-04  /
#      CHEB/ 1.314e-04    -3.768e+00   -9.599e-03   7.355e-02    3.862e-02   /
#      CHEB/ -5.499e-03   -4.705e-03   1.039e-03    7.432e-04    -1.911e+00  /
#      CHEB/ -5.438e-02   1.827e-02    4.903e-03    3.187e-03    -5.132e-04  /
#      CHEB/ -3.029e-04   1.059e-04    -8.882e-01   3.895e-02    3.379e-02   /
#      CHEB/ -1.196e-02   -4.750e-04   2.650e-03    3.099e-04    -4.354e-04  /
#      CHEB/ -4.557e-01   -3.109e-02   3.154e-02    5.036e-03    -2.966e-04  /
#      CHEB/ 4.873e-04    2.911e-04    -2.817e-05   -2.508e-01   -1.175e-01  /
#      CHEB/ -1.206e-02   1.222e-02    4.802e-03    -8.934e-05   -4.593e-04  /
#      CHEB/ 1.334e-05    -1.123e-01   -1.030e-01   -4.127e-02   8.702e-04   /
#      CHEB/ 4.736e-03    1.226e-03    -2.460e-04   -2.117e-04   -2.438e-02  /
#      CHEB/ -3.083e-02   -3.624e-02   -7.997e-03   1.158e-03    9.969e-04   /
#      CHEB/ 2.920e-04    -7.977e-05   1.622e-02    1.053e-02    -1.559e-02  /
#      CHEB/ -8.651e-03   -8.042e-04   4.452e-04    1.311e-04    5.681e-05   /

# Reaction 6
chebyshev_reaction('gQOOHa (+ M) <=> gQOOH[O] (+ M)',
                   Tmin=180.0, Tmax=1500.0,
                   Pmin=(0.01, 'atm'), Pmax=(98.692, 'atm'),
                   coeffs=[[-1.00500e+01,  1.31300e+00, -4.88800e-01,  1.96700e-02,  3.11200e-02, -4.82900e-04, -4.64300e-03,  1.54100e-04],
                           [-2.70900e+00,  1.42200e+00,  3.98400e-01, -1.42600e-02, -2.89500e-02,  4.29300e-03,  3.74100e-03, -9.53700e-04],
                           [-5.18400e+00, -4.99300e-01,  1.14600e-01,  1.04500e-01, -7.33600e-03, -1.38400e-02,  8.28500e-04,  2.51100e-03],
                           [-2.02200e+00, -1.13000e-01, -1.38200e-01,  8.95200e-03,  2.18300e-02, -1.59500e-03, -2.58000e-03, -3.38500e-05],
                           [-7.70500e-01,  3.22900e-01,  4.10600e-03, -5.41400e-02,  1.71400e-03,  8.62500e-03, -1.96100e-04, -1.43200e-03],
                           [-4.36300e-01,  9.53300e-02,  1.03400e-01,  3.39200e-03, -1.08200e-02,  1.22200e-03,  1.77000e-03, -3.19600e-04],
                           [-2.98400e-01, -1.39800e-01, -3.36600e-03,  3.41300e-02,  7.94700e-03, -3.28200e-03, -6.69900e-04,  4.87300e-04],
                           [-1.42000e-01, -1.34600e-01, -6.47400e-02, -3.40100e-03,  1.15200e-02,  3.14300e-03, -1.40400e-03, -4.40800e-04],
                           [-3.30200e-02, -3.16500e-02, -3.63600e-02, -1.64700e-02, -2.40200e-03,  2.90300e-03,  1.07000e-03, -5.07600e-04],
                           [ 7.60500e-03,  1.61200e-02, -9.02700e-03, -2.92600e-03, -2.35600e-03, -1.54800e-03,  4.42200e-04,  3.86600e-04]])

# Reaction 7
chebyshev_reaction('gQOOHg (+ M) <=> gQOOH[O] (+ M)',
                   Tmin=180.0, Tmax=1500.0,
                   Pmin=(0.01, 'atm'), Pmax=(98.692, 'atm'),
                   coeffs=[[-6.55100e+00,  8.57400e-01, -4.17600e-01,  3.66700e-02,  2.16000e-02, -2.54800e-03, -3.49100e-03,  5.06800e-04],
                           [-2.71400e+00,  1.66700e+00,  2.80300e-01, -8.87000e-03, -1.66600e-02,  1.61100e-03,  1.71600e-03, -3.90300e-04],
                           [-4.39000e+00, -1.93100e-01,  2.02600e-01,  7.17800e-02, -1.82400e-02, -7.15000e-03,  2.69600e-03,  7.68200e-04],
                           [-2.11600e+00, -2.16000e-01, -8.88300e-03,  2.35500e-02,  7.91200e-03, -1.84700e-03, -1.28200e-03,  3.18000e-05],
                           [-8.48700e-01,  2.29400e-02, -2.19500e-02, -1.18200e-02,  6.87800e-03,  2.89300e-03, -8.96200e-04, -5.82100e-04],
                           [-3.81000e-01,  2.76000e-02,  1.22400e-02, -2.13400e-03,  7.95400e-04,  1.58000e-03,  3.38900e-04, -2.57700e-04],
                           [-2.18000e-01, -6.00100e-02,  4.39500e-03,  1.09500e-02,  1.36800e-03, -3.46100e-04,  1.84900e-04,  1.30400e-05],
                           [-1.22600e-01, -8.76300e-02, -1.93100e-02,  9.47600e-03,  3.60200e-03, -3.12000e-04, -4.09500e-04, -4.19500e-05],
                           [-5.76500e-02, -5.15100e-02, -3.26100e-02,  1.57900e-03,  4.95400e-03,  3.92900e-04, -5.44100e-04, -1.66400e-04],
                           [-5.54000e-03, -2.12000e-02, -2.76700e-02, -7.12800e-03,  3.63800e-03,  1.95400e-03, -3.17000e-04, -2.96200e-04]])

# Reaction 8
chebyshev_reaction('gQOOHb (+ M) <=> gQOOH[O] (+ M)',
                   Tmin=180.0, Tmax=1500.0,
                   Pmin=(0.01, 'atm'), Pmax=(98.692, 'atm'),
                   coeffs=[[-1.16000e+01,  8.27300e-01, -3.14500e-01, -2.07700e-03,  1.93800e-02,  1.34500e-03, -3.27700e-03,  6.11600e-06],
                           [ 2.17800e+00,  1.95600e+00,  2.06900e-01, -1.28400e-03, -1.37400e-02, -5.09400e-04,  1.53800e-03,  2.48000e-04],
                           [-3.76600e+00, -5.68800e-02,  1.37300e-01,  7.58900e-02, -1.20900e-02, -8.62400e-03,  2.27800e-03,  1.16400e-03],
                           [-1.94500e+00, -1.43700e-01, -8.61700e-03,  1.40600e-02,  5.58600e-03,  2.28200e-04, -5.26600e-04, -2.66000e-04],
                           [-8.85600e-01,  2.08800e-02,  6.78700e-03, -1.26400e-02,  1.57100e-03,  3.25500e-03,  2.87100e-05, -5.54400e-04],
                           [-4.64700e-01, -3.27100e-02,  2.09300e-02,  4.57900e-03,  4.29700e-04,  3.64500e-04,  2.19700e-04,  5.75400e-05],
                           [-2.65800e-01, -1.14000e-01, -1.06500e-02,  1.11600e-02,  4.13000e-03, -1.94900e-04, -3.61600e-04,  3.84800e-05],
                           [-1.22300e-01, -9.94800e-02, -3.39400e-02,  1.41800e-03,  3.84500e-03,  1.04700e-03, -2.65500e-04, -2.41500e-04],
                           [-3.29100e-02, -3.05100e-02, -3.09100e-02, -5.71400e-03,  1.53500e-03,  8.36400e-04,  1.47400e-04, -1.40400e-04],
                           [ 1.57000e-02,  6.47700e-03, -1.49000e-02, -6.79900e-03,  2.68200e-04,  7.05500e-04,  1.00600e-05, -2.05000e-05]])

# Reaction 9
chebyshev_reaction('O2 + gR (+ M) <=> gQOOH[O] (+ M)',
                   Tmin=180.0, Tmax=1500.0,
                   Pmin=(0.01, 'atm'), Pmax=(98.692, 'atm'),
                   coeffs=[[-1.16700e+00,  1.45400e+00, -5.89500e-01,  4.84600e-02,  1.13600e-02,  6.15800e-04, -4.22300e-03,  7.56400e-04],
                           [-4.24600e+00,  8.10300e-01,  1.34300e-01, -1.65800e-03,  1.55500e-02, -1.19900e-02,  4.69600e-03, -2.60500e-04],
                           [-2.30900e+00,  3.46800e-01,  3.70700e-02, -6.78700e-02,  1.70600e-02, -5.05800e-05, -1.10300e-03,  1.21100e-03],
                           [-9.97500e-01,  2.50200e-01,  1.06600e-01, -6.22500e-02, -1.15900e-03,  3.82300e-03, -1.90300e-03,  5.09300e-04],
                           [-4.58600e-01,  1.62900e-01,  1.49900e-01, -2.31600e-02, -1.22500e-02,  4.30600e-03,  4.88400e-05, -3.50500e-04],
                           [-2.99500e-01, -2.85100e-02,  1.08100e-01,  1.62000e-02, -7.71000e-03,  1.34100e-04,  3.41800e-04,  3.03400e-04],
                           [-2.19100e-01, -1.56800e-01,  2.28700e-02,  2.52400e-02,  2.48900e-03, -9.99800e-04, -1.05200e-03,  4.81700e-04],
                           [-1.16900e-01, -1.48100e-01, -2.97200e-02,  8.73900e-03,  5.35000e-03,  1.00300e-03, -1.32300e-03,  2.58000e-05],
                           [-3.81600e-02, -6.36700e-02, -3.93600e-02, -2.31600e-03,  2.49700e-03,  1.48700e-03, -7.60500e-04, -1.42700e-04],
                           [ 1.79500e-02, -1.38600e-02, -2.01100e-02, -7.22200e-03,  4.34200e-04,  1.57300e-03, -5.02400e-04, -2.44000e-04]])
#  gRO2(+M) <=> gQOOHa(+M)                             1.000e+00 0.000     0.000
#      TCHEB/ 180.000   1500.000 /
#      PCHEB/ 0.010     98.692   /
#      CHEB/ 10 8/
#      CHEB/ -2.209e+00   1.304e+00    -7.706e-02   2.205e-02    -1.504e-03  /
#      CHEB/ -6.565e-04   -1.050e-05   -9.889e-05   -1.527e+00   1.285e+00   /
#      CHEB/ 1.071e-01    -9.524e-03   5.968e-03    -6.943e-04   -1.003e-03  /
#      CHEB/ 1.236e-04    -3.736e+00   -5.651e-02   8.208e-02    3.058e-02   /
#      CHEB/ -1.518e-03   -2.019e-04   -3.895e-04   -1.790e-04   -1.656e+00  /
#      CHEB/ -9.401e-02   -7.557e-02   2.103e-02    1.074e-02    -2.033e-03  /
#      CHEB/ -5.562e-04   7.575e-05    -8.137e-01   8.396e-02    -1.020e-02  /
#      CHEB/ -1.206e-02   4.554e-03    2.357e-03    -7.282e-04   -2.674e-04  /
#      CHEB/ -4.823e-01   -4.928e-02   4.886e-02    1.363e-02    -3.792e-03  /
#      CHEB/ 2.806e-04    5.555e-04    -2.939e-04   -2.663e-01   -1.401e-01  /
#      CHEB/ -2.400e-02   2.390e-02    8.655e-03    -1.733e-03   -6.073e-04  /
#      CHEB/ 1.209e-04    -1.150e-01   -9.513e-02   -5.631e-02   -7.738e-03  /
#      CHEB/ 9.874e-03    3.531e-03    -1.053e-03   -4.912e-04   -1.879e-02  /
#      CHEB/ -2.211e-02   -2.775e-02   -1.547e-02   -1.989e-03   3.062e-03   /
#      CHEB/ 9.419e-04    -4.940e-04   4.805e-03    1.125e-02    -1.118e-02  /
#      CHEB/ -3.154e-03   -1.741e-03   -1.186e-03   4.552e-04    3.247e-04   /
#  gQOOH[O](+M) <=> gQOOHa(+M)                         1.000e+00 0.000     0.000
#      TCHEB/ 180.000   1500.000 /
#      PCHEB/ 0.010     98.692   /
#      CHEB/ 10 8/
#      CHEB/ -1.238e+00   1.313e+00    -4.888e-01   1.967e-02    3.112e-02   /
#      CHEB/ -4.829e-04   -4.643e-03   1.541e-04    -9.012e+00   1.422e+00   /
#      CHEB/ 3.984e-01    -1.426e-02   -2.895e-02   4.293e-03    3.741e-03   /
#      CHEB/ -9.537e-04   -5.196e+00   -4.993e-01   1.146e-01    1.045e-01   /
#      CHEB/ -7.336e-03   -1.384e-02   8.285e-04    2.511e-03    -2.072e+00  /
#      CHEB/ -1.130e-01   -1.382e-01   8.952e-03    2.183e-02    -1.595e-03  /
#      CHEB/ -2.580e-03   -3.385e-05   -7.956e-01   3.229e-01    4.106e-03   /
#      CHEB/ -5.414e-02   1.714e-03    8.625e-03    -1.961e-04   -1.432e-03  /
#      CHEB/ -4.456e-01   9.533e-02    1.034e-01    3.392e-03    -1.082e-02  /
#      CHEB/ 1.222e-03    1.770e-03    -3.196e-04   -3.017e-01   -1.398e-01  /
#      CHEB/ -3.366e-03   3.413e-02    7.947e-03    -3.282e-03   -6.699e-04  /
#      CHEB/ 4.873e-04    -1.433e-01   -1.346e-01   -6.474e-02   -3.401e-03  /
#      CHEB/ 1.152e-02    3.143e-03    -1.404e-03   -4.408e-04   -3.349e-02  /
#      CHEB/ -3.165e-02   -3.636e-02   -1.647e-02   -2.402e-03   2.903e-03   /