units(length='cm', time='s', quantity='mol', act_energy='kcal/mol')

ideal_gas(name='gas',
          elements="H D T C Ci O Oi N Ne Ar He Si S F Cl Br I X",
          species="""propene3ol       OH               disub_c4ether
                     H2O              disub_epoxy      gQOOHa
                     propene1ol       gQOOHb           ipropylOOH
                     galdoxy          galkene          CH2O
                     O2               gRO2             gQOOHg
                     gR               galdol           monosub_c4ether
                     HO2              gQOOH[O]""",
          reactions='all',
          initial_state=state(temperature=300.0, pressure=OneAtm))

#-------------------------------------------------------------------------------
# Element data
#-------------------------------------------------------------------------------

element(symbol='Ci', atomic_mass=13.003)
element(symbol='D', atomic_mass=2.014)
element(symbol='Oi', atomic_mass=18.0)
element(symbol='T', atomic_mass=3.016)
element(symbol='X', atomic_mass=195.083)
#-------------------------------------------------------------------------------
# Species data
#-------------------------------------------------------------------------------

species(name='propene3ol',
        atoms='C:3 H:6 O:1',
        thermo=(NASA([10.00, 444.81],
                     [ 3.92769709E+00,  4.89977303E-03,  1.13094874E-04,
                      -2.59008187E-07,  1.86205760E-10, -1.51476736E+04,
                       9.90805416E+00]),
                NASA([444.81, 3000.00],
                     [ 2.61720343E+00,  3.01777872E-02, -1.76511625E-05,
                       5.14864061E-09, -5.91153761E-13, -1.51645741E+04,
                       1.36683107E+01])))

species(name='OH',
        atoms='H:1 O:1',
        thermo=(NASA([10.00, 984.14],
                     [ 3.49686242E+00,  1.83973160E-04, -9.97634499E-07,
                       1.56942783E-09, -6.10128175E-13,  3.41673934E+03,
                       1.48093120E+00]),
                NASA([984.14, 3000.00],
                     [ 3.45221464E+00, -2.95124034E-04,  7.39418622E-07,
                      -2.89309866E-10,  3.53041498E-14,  3.45751599E+03,
                       1.85813897E+00])))

species(name='disub_c4ether',
        atoms='C:4 H:8 O:2',
        thermo=(NASA([10.00, 413.50],
                     [ 3.78241323E+00,  1.89501763E-02,  8.65302396E-05,
                      -1.80580575E-07,  1.13656264E-10, -3.90629391E+04,
                       1.09982450E+01]),
                NASA([413.50, 3000.00],
                     [ 4.29420885E-01,  5.13851903E-02, -3.11292293E-05,
                       9.11498284E-09, -1.03192718E-12, -3.87856448E+04,
                       2.42134976E+01])))

species(name='H2O',
        atoms='H:2 O:1',
        thermo=(NASA([10.00, 773.84],
                     [ 4.00473541E+00, -2.39729134E-04,  8.11862955E-07,
                       1.47891862E-09, -1.19783539E-12, -3.03533807E+04,
                      -9.96254147E-02]),
                NASA([773.84, 3000.00],
                     [ 3.52133374E+00,  1.05377009E-03,  6.40722099E-07,
                      -3.86240235E-10,  5.49243294E-14, -3.02424794E+04,
                       2.34173094E+00])))

species(name='disub_epoxy',
        atoms='C:4 H:8 O:2',
        thermo=(NASA([10.00, 549.41],
                     [ 3.89863211E+00,  5.97532637E-03,  1.66685676E-04,
                      -3.10743768E-07,  1.78330192E-10, -3.50473612E+04,
                       1.13847308E+01]),
                NASA([549.41, 3000.00],
                     [-6.40277648E-01,  6.05960003E-02, -4.13427220E-05,
                       1.31555461E-08, -1.57685017E-12, -3.48742444E+04,
                       2.76005436E+01])))

species(name='gQOOHa',
        atoms='C:4 H:9 O:3',
        thermo=(NASA([10.00, 160.74],
                     [ 3.80808147E+00,  2.31043884E-02,  5.26945984E-04,
                      -3.11500696E-06,  6.03881958E-09, -2.55651505E+04,
                       1.17645316E+01]),
                NASA([160.74, 3000.00],
                     [ 2.90630300E+00,  6.50241173E-02, -4.60073244E-05,
                       1.51330930E-08, -1.87074267E-12, -2.55613260E+04,
                       1.36838819E+01])))

species(name='propene1ol',
        atoms='C:3 H:6 O:1',
        thermo=(NASA([10.00, 459.42],
                     [ 3.91245344E+00,  5.85800161E-03,  1.15412006E-04,
                      -2.68014417E-07,  1.91800131E-10, -1.98662074E+04,
                       8.14807684E+00]),
                NASA([459.42, 3000.00],
                     [ 3.14049093E+00,  2.95550898E-02, -1.73843684E-05,
                       5.11506211E-09, -5.92966137E-13, -1.99744299E+04,
                       9.32215170E+00])))

species(name='gQOOHb',
        atoms='C:4 H:9 O:3',
        thermo=(NASA([10.00, 1018.67],
                     [ 3.99028351E+00,  4.29665712E-02,  2.28338778E-05,
                      -5.67914439E-08,  2.29383258E-11, -2.18144458E+04,
                       1.20326731E+01]),
                NASA([1018.67, 3000.00],
                     [ 1.38304153E+01,  3.88527019E-02, -2.19473905E-05,
                       5.78719895E-09, -5.85097740E-13, -2.56105306E+04,
                      -4.44147388E+01])))

species(name='ipropylOOH',
        atoms='C:3 H:7 O:2',
        thermo=(NASA([10.00, 405.01],
                     [ 3.30075623E+00,  7.58672756E-02, -3.35754269E-04,
                       8.05972164E-07, -6.68864582E-10, -3.59433196E+02,
                       1.43372849E+01]),
                NASA([405.01, 3000.00],
                     [ 2.51742509E+00,  3.72760950E-02, -2.12450220E-05,
                       5.83593926E-09, -6.22110649E-13,  8.39744105E+01,
                       2.20991392E+01])))

species(name='galdoxy',
        atoms='C:4 H:7 O:2',
        thermo=(NASA([10.00, 209.62],
                     [ 3.82641108E+00,  1.84758886E-02,  3.43073800E-04,
                      -1.82817005E-06,  2.98516720E-09, -1.69223492E+04,
                       1.17972706E+01]),
                NASA([209.62, 3000.00],
                     [ 4.22049016E+00,  4.03370149E-02, -2.36129482E-05,
                       6.72979114E-09, -7.47862493E-13, -1.70034190E+04,
                       8.97211724E+00])))

species(name='galkene',
        atoms='C:4 H:8 O:1',
        thermo=(NASA([10.00, 383.47],
                     [ 3.84035604E+00,  1.20378740E-02,  1.87486319E-04,
                      -5.44759148E-07,  4.80711015E-10, -2.07625051E+04,
                       1.02570291E+01]),
                NASA([383.47, 3000.00],
                     [ 4.00413385E+00,  3.79025144E-02, -2.15435710E-05,
                       6.15213311E-09, -6.97446345E-13, -2.09777944E+04,
                       6.98052628E+00])))

species(name='CH2O',
        atoms='C:1 H:2 O:1',
        thermo=(NASA([10.00, 601.31],
                     [ 4.03190845E+00, -1.93233367E-03,  8.89743345E-06,
                       2.98105926E-09, -7.90813886E-12, -1.42276270E+04,
                       3.47574660E+00]),
                NASA([601.31, 3000.00],
                     [ 1.40134195E+00,  9.48858016E-03, -4.43088317E-06,
                       9.48452194E-10, -7.43790219E-14, -1.38013869E+04,
                       1.57423780E+01])))

species(name='O2',
        atoms='O:2',
        thermo=(NASA([10.00, 605.96],
                     [ 3.50743498E+00, -4.43860349E-04,  1.45938058E-06,
                       1.61509333E-09, -2.32050052E-12, -9.24756224E+02,
                       4.72183634E+00]),
                NASA([605.96, 3000.00],
                     [ 2.87462882E+00,  2.17840991E-03, -1.18262921E-06,
                       2.86910493E-10, -2.53297146E-14, -8.19517838E+02,
                       7.69331810E+00])))

species(name='gRO2',
        atoms='C:4 H:9 O:3',
        thermo=(NASA([10.00, 177.33],
                     [ 3.70632176E+00,  3.49733664E-02,  4.64036392E-04,
                      -3.18637835E-06,  6.38178607E-09, -2.76321583E+04,
                       1.24459269E+01]),
                NASA([177.33, 3000.00],
                     [ 4.82062697E+00,  5.17179689E-02, -3.18386818E-05,
                       9.52247045E-09, -1.10180288E-12, -2.77375288E+04,
                       7.14082953E+00])))

species(name='gQOOHg',
        atoms='C:4 H:9 O:3',
        thermo=(NASA([10.00, 475.03],
                     [ 3.42273720E+00,  4.98344215E-02,  6.47820920E-05,
                      -2.49842966E-07,  1.98636537E-10, -2.01355157E+04,
                       1.41578583E+01]),
                NASA([475.03, 3000.00],
                     [ 5.94049074E+00,  5.53778585E-02, -3.71708255E-05,
                       1.17540477E-08, -1.40812095E-12, -2.06764700E+04,
                       7.09201218E-01])))

species(name='gR',
        atoms='C:4 H:9 O:1',
        thermo=(NASA([10.00, 638.24],
                     [ 3.37074633E+00,  5.17529751E-02, -6.54872940E-05,
                       6.88084237E-08, -3.21569794E-11, -1.17902307E+04,
                       1.14339669E+01]),
                NASA([638.24, 3000.00],
                     [ 3.99410860E+00,  4.06314915E-02, -2.23932510E-05,
                       6.08356263E-09, -6.49884708E-13, -1.17228560E+04,
                       9.85769960E+00])))

species(name='galdol',
        atoms='C:4 H:8 O:2',
        thermo=(NASA([10.00, 506.68],
                     [ 3.85380874E+00,  9.21272695E-03,  1.86712348E-04,
                      -3.96417049E-07,  2.55528268E-10, -4.53199532E+04,
                       1.24312743E+01]),
                NASA([506.68, 3000.00],
                     [ 1.49710213E+00,  5.65979142E-02, -3.87709084E-05,
                       1.23682052E-08, -1.48287964E-12, -4.54505626E+04,
                       1.85531759E+01])))

species(name='monosub_c4ether',
        atoms='C:4 H:8 O:2',
        thermo=(NASA([10.00, 380.36],
                     [ 3.47743996E+00,  6.08051311E-02, -2.78518945E-04,
                       8.23182713E-07, -7.87158031E-10, -3.14150241E+04,
                       1.06415154E+01]),
                NASA([380.36, 3000.00],
                     [-1.09346901E+00,  5.35985968E-02, -3.21081420E-05,
                       9.20818293E-09, -1.01830294E-12, -3.06674640E+04,
                       3.35312368E+01])))

species(name='HO2',
        atoms='H:1 O:2',
        thermo=(NASA([10.00, 891.11],
                     [ 4.02887004E+00, -1.75769289E-03,  1.08726004E-05,
                      -1.13812972E-08,  3.90113097E-12,  4.95165001E+02,
                       4.69302008E+00]),
                NASA([891.11, 3000.00],
                     [ 3.06571044E+00,  4.28505005E-03, -2.19325920E-06,
                       5.58882699E-10, -5.61246669E-14,  5.98557610E+02,
                       8.84564156E+00])))

species(name='gQOOH[O]',
        atoms='C:4 H:9 O:3',
        thermo=(NASA([10.00, 535.23],
                     [ 3.83107445E+00,  1.02302002E-02,  2.29377261E-04,
                      -4.59095575E-07,  2.77765018E-10, -1.83807732E+04,
                       1.41034859E+01]),
                NASA([535.23, 3000.00],
                     [-4.19283096E-01,  7.69784620E-02, -5.57279000E-05,
                       1.81378295E-08, -2.18295635E-12, -1.84268866E+04,
                       2.72711816E+01])))

#-------------------------------------------------------------------------------
# Reaction data
#-------------------------------------------------------------------------------

# Reaction 1
chebyshev_reaction('gQOOH[O] (+ M) <=> gRO2 (+ M)',
                   Tmin=180.0, Tmax=1500.0,
                   Pmin=(0.01, 'atm'), Pmax=(98.692, 'atm'),
                   coeffs=[[ 4.37400e+00,  1.24300e+00, -2.22100e-01,  9.38500e-03,  1.42600e-02, -1.87000e-03, -1.51800e-03,  5.14800e-04],
                           [-6.39800e+00,  5.42600e-01,  6.81200e-02, -1.28900e-02, -1.86200e-03,  2.83500e-03, -2.08300e-04, -4.77300e-04],
                           [-4.09700e+00, -2.91500e-01, -2.74700e-02,  4.14700e-02,  5.24400e-03, -6.12500e-03, -7.13800e-04,  1.00300e-03],
                           [-2.11900e+00, -9.35400e-02, -7.31000e-02, -1.08500e-02,  7.78900e-03,  1.42900e-03, -1.37200e-03, -1.35800e-04],
                           [-9.50200e-01,  1.10400e-01,  1.48700e-02, -2.27700e-02, -9.51300e-03,  2.02000e-03,  1.92000e-03, -2.84600e-04],
                           [-4.14600e-01,  8.92700e-02,  3.63200e-02,  3.47500e-03, -3.10300e-03, -2.32000e-03, -1.82800e-04,  4.53100e-04],
                           [-1.77900e-01, -1.65800e-02,  8.54800e-03,  8.25800e-03,  4.39200e-03,  2.85300e-04, -1.11500e-03, -3.28100e-04],
                           [-9.10900e-02, -7.96300e-03, -1.62900e-02, -6.87400e-03,  1.74200e-03,  2.62500e-03,  5.22000e-04, -3.96900e-04],
                           [-3.25500e-03, -1.25300e-02, -5.33500e-03, -4.87800e-03, -3.07900e-03,  8.74500e-05,  7.55400e-04,  1.96600e-04],
                           [ 2.04000e-02,  1.57500e-03,  4.39000e-03,  4.43300e-03, -3.95800e-04, -2.00300e-03, -7.27000e-04,  2.87600e-04]])

# Reaction 2
chebyshev_reaction('gQOOHa (+ M) <=> gRO2 (+ M)',
                   Tmin=180.0, Tmax=1500.0,
                   Pmin=(0.01, 'atm'), Pmax=(98.692, 'atm'),
                   coeffs=[[ 2.32200e+00,  3.87400e-01, -4.57300e-02,  1.05400e-02,  1.16100e-03, -4.64400e-04, -2.72700e-05,  7.79900e-05],
                           [ 6.24500e-01,  5.74200e-01, -4.82700e-02,  1.17000e-02,  2.91900e-03, -8.13000e-04, -1.33700e-05,  1.04300e-04],
                           [-2.58800e+00,  1.50900e-01,  2.24500e-02, -5.44100e-04,  1.86500e-03, -7.28000e-05, -2.81900e-05,  2.04800e-05],
                           [-1.73900e+00, -1.79100e-01,  4.03700e-02, -9.73600e-04, -6.63900e-04,  4.71900e-04,  1.68100e-05, -4.65500e-05],
                           [-9.89500e-01, -2.61600e-01,  2.49400e-03,  3.50800e-03, -1.33300e-03,  1.72400e-04,  9.75300e-05, -4.35500e-05],
                           [-3.67300e-01, -1.63900e-01, -3.59600e-02,  1.06400e-03,  1.94800e-04, -2.72900e-04,  5.18300e-05,  1.67700e-05],
                           [-8.65200e-02, -3.02400e-02, -3.79200e-02, -6.38800e-03,  7.79000e-04, -9.72800e-05, -5.51700e-05,  4.88600e-05],
                           [ 3.79700e-02,  4.91200e-02, -1.20300e-02, -9.33000e-03, -7.98700e-04,  2.54800e-04, -1.66300e-05,  1.95400e-05],
                           [ 3.68000e-02,  6.27800e-02,  1.34900e-02, -4.34000e-03, -2.37000e-03,  7.41300e-05,  1.08300e-04, -1.11000e-05],
                           [ 1.82800e-02,  3.92400e-02,  2.18600e-02,  3.42200e-03, -1.77300e-03, -4.61000e-04,  7.74200e-05, -8.78600e-06]])

# Reaction 3
chebyshev_reaction('gQOOHg (+ M) <=> gRO2 (+ M)',
                   Tmin=180.0, Tmax=1500.0,
                   Pmin=(0.01, 'atm'), Pmax=(98.692, 'atm'),
                   coeffs=[[ 3.69200e+00,  8.87400e-01, -1.11000e-01,  3.29300e-02,  8.46600e-04, -1.92300e-03,  2.08300e-05,  1.60400e-04],
                           [-5.64400e+00,  7.70100e-01,  1.18700e-02,  1.12300e-02,  8.15500e-03, -3.17600e-03, -1.53700e-04,  4.71600e-04],
                           [-3.95400e+00, -3.65800e-01,  6.08700e-02,  2.42300e-02, -4.07500e-03,  3.19500e-04,  5.32200e-04, -1.01200e-04],
                           [-1.95900e+00, -4.07100e-01, -9.79500e-02,  1.78800e-02,  4.07600e-03, -7.81100e-04,  3.87400e-04, -6.64600e-05],
                           [-8.00500e-01, -2.95500e-02, -1.02100e-01, -2.88900e-02,  6.72300e-03,  1.64400e-03, -5.20800e-04,  1.37200e-04],
                           [-3.00000e-01,  9.05900e-02,  7.38100e-03, -2.49200e-02, -9.34100e-03,  1.68400e-03,  1.11200e-03, -9.34300e-05],
                           [-1.22500e-01,  3.17900e-02,  3.87600e-02,  7.52100e-03, -8.55400e-03, -3.13300e-03,  1.03700e-03,  3.59700e-04],
                           [-5.84100e-02,  9.93800e-03, -4.68300e-03,  1.18100e-02,  5.14900e-03, -2.94200e-03, -1.46100e-03,  4.67500e-04],
                           [ 3.52600e-04,  1.18600e-04, -1.19700e-02, -2.62700e-03,  4.60100e-03,  1.20900e-03, -1.11300e-03, -3.60000e-04],
                           [ 2.46400e-02,  3.78700e-03,  9.29600e-03, -3.74700e-03, -3.80900e-03,  1.35900e-03,  8.43900e-04, -4.82800e-04]])

# Reaction 4
chebyshev_reaction('gQOOHb (+ M) <=> gRO2 (+ M)',
                   Tmin=180.0, Tmax=1500.0,
                   Pmin=(0.01, 'atm'), Pmax=(98.692, 'atm'),
                   coeffs=[[-1.01700e+00,  8.35000e-01, -1.67200e-02, -1.34700e-02,  2.69800e-04,  1.43200e-03,  9.18700e-05, -1.35300e-04],
                           [ 5.01200e-03,  1.16200e+00,  1.14300e-02, -2.11900e-02,  9.78200e-04,  1.71600e-03,  1.15300e-04, -1.51500e-04],
                           [-2.89000e+00,  2.92800e-01,  2.47500e-02,  2.99300e-03,  6.07800e-04, -2.94800e-04, -1.10500e-05,  4.58600e-05],
                           [-1.89200e+00, -1.62400e-01, -2.25200e-02,  1.32400e-02,  2.20200e-03, -1.01500e-03, -1.38200e-04,  1.00300e-04],
                           [-9.91400e-01, -1.68400e-01, -4.47200e-02,  7.67500e-04,  1.90400e-03,  3.16700e-05, -3.68400e-05, -8.73200e-07],
                           [-4.23000e-01, -4.12600e-02, -2.46500e-02, -8.74500e-03, -9.59700e-04,  5.72800e-04,  1.88100e-04, -4.15000e-05],
                           [-1.29500e-01,  2.88600e-02, -7.95700e-04, -5.57300e-03, -1.96800e-03,  2.10200e-06,  1.16200e-04,  8.82800e-06],
                           [-2.59400e-02,  3.45200e-02,  7.58000e-03,  4.27100e-04, -5.60300e-04, -3.36600e-04, -1.14800e-04,  1.16500e-05],
                           [ 2.21300e-02,  2.21600e-02,  5.90900e-03,  2.33000e-03,  7.09000e-04, -7.31000e-05, -1.40500e-04, -2.44000e-05],
                           [-1.16200e-02,  1.32500e-02,  1.88700e-03,  1.58900e-03,  6.82200e-04,  2.07600e-04,  3.74900e-07, -2.30600e-05]])

# Reaction 5
chebyshev_reaction('O2 + gR (+ M) <=> gRO2 (+ M)',
                   Tmin=180.0, Tmax=1500.0,
                   Pmin=(0.01, 'atm'), Pmax=(98.692, 'atm'),
                   coeffs=[[ 1.42300e+01,  1.17700e+00, -8.94300e-02,  1.12100e-03, -3.64300e-04,  4.86500e-04, -1.39100e-04,  2.45000e-05],
                           [-4.58700e+00,  8.02900e-01,  6.61700e-02, -3.03100e-03, -1.30700e-03, -1.41900e-04,  5.95400e-05, -2.34500e-06],
                           [-2.40400e+00,  1.26900e-01,  2.89900e-02,  4.47100e-03,  5.95700e-04, -1.11100e-04, -1.07000e-05,  5.88200e-07],
                           [-1.22100e+00, -2.37600e-02,  1.56500e-03,  4.67900e-04,  5.12400e-04, -5.13800e-06,  2.00400e-05, -4.19400e-06],
                           [-5.91700e-01, -4.23600e-02, -3.56200e-03, -7.10600e-04,  1.56300e-04, -4.00700e-05,  1.66700e-05, -6.16700e-06],
                           [-2.56200e-01, -3.32600e-02, -4.11400e-03, -5.94000e-04,  3.81600e-05, -2.34700e-05,  9.76500e-06, -3.46700e-06],
                           [-8.60400e-02, -1.72500e-02, -3.16300e-03, -4.69100e-04, -3.17200e-05, -6.39700e-06,  4.49000e-06,  4.61200e-07],
                           [-1.18400e-02, -2.36900e-03, -1.64700e-03, -2.40600e-04, -7.75600e-05,  1.15600e-06, -2.01800e-06,  2.32500e-06],
                           [ 1.04000e-02,  6.36800e-03, -6.42000e-05, -3.67000e-05, -6.81900e-05,  5.01500e-06, -6.13400e-06,  1.65300e-06],
                           [ 9.23400e-03,  8.21500e-03,  1.05300e-03,  8.01000e-05, -2.20800e-05,  2.44900e-06, -4.32400e-06, -3.56800e-07]])
#  gRO2(+M) <=> gQOOH[O](+M)                           1.000e+00 0.000     0.000
#      TCHEB/ 180.000   1500.000 /
#      PCHEB/ 0.010     98.692   /
#      CHEB/ 10 8/
#      CHEB/ -8.611e+00   1.243e+00    -2.221e-01   9.385e-03    1.426e-02   /
#      CHEB/ -1.870e-03   -1.518e-03   5.148e-04    3.160e+00    5.426e-01   /
#      CHEB/ 6.812e-02    -1.289e-02   -1.862e-03   2.835e-03    -2.083e-04  /
#      CHEB/ -4.773e-04   -3.924e+00   -2.915e-01   -2.747e-02   4.147e-02   /
#      CHEB/ 5.244e-03    -6.125e-03   -7.138e-04   1.003e-03    -1.994e+00  /
#      CHEB/ -9.354e-02   -7.310e-02   -1.085e-02   7.789e-03    1.429e-03   /
#      CHEB/ -1.372e-03   -1.358e-04   -8.965e-01   1.104e-01    1.487e-02   /
#      CHEB/ -2.277e-02   -9.513e-03   2.020e-03    1.920e-03    -2.846e-04  /
#      CHEB/ -3.956e-01   8.927e-02    3.632e-02    3.475e-03    -3.103e-03  /
#      CHEB/ -2.320e-03   -1.828e-04   4.531e-04    -1.717e-01   -1.658e-02  /
#      CHEB/ 8.548e-03    8.258e-03    4.392e-03    2.853e-04    -1.115e-03  /
#      CHEB/ -3.281e-04   -8.917e-02   -7.963e-03   -1.629e-02   -6.874e-03  /
#      CHEB/ 1.742e-03    2.625e-03    5.220e-04    -3.969e-04   -2.793e-03  /
#      CHEB/ -1.253e-02   -5.335e-03   -4.878e-03   -3.079e-03   8.745e-05   /
#      CHEB/ 7.554e-04    1.966e-04    2.037e-02    1.575e-03    4.390e-03   /
#      CHEB/ 4.433e-03    -3.958e-04   -2.003e-03   -7.270e-04   2.876e-04   /

# Reaction 6
chebyshev_reaction('gQOOHa (+ M) <=> gQOOH[O] (+ M)',
                   Tmin=180.0, Tmax=1500.0,
                   Pmin=(0.01, 'atm'), Pmax=(98.692, 'atm'),
                   coeffs=[[-9.60500e+00,  1.68600e-02, -3.62600e-01,  2.51100e-02,  2.19000e-02, -2.70800e-03, -2.63900e-03,  7.77300e-04],
                           [ 1.34800e+00,  1.19100e+00,  5.65000e-02, -4.10100e-03, -2.39200e-03,  2.41200e-03,  7.83600e-04, -7.52000e-04],
                           [-4.44300e+00, -2.92900e-01,  3.45000e-02,  5.56700e-02,  1.68100e-03, -8.73900e-03,  7.38900e-04,  1.32300e-03],
                           [-2.37200e+00, -2.62700e-01, -5.13000e-02, -4.26100e-03,  7.93100e-03,  1.12700e-03, -1.35300e-03, -9.48100e-05],
                           [-1.00800e+00, -2.57900e-02, -5.82500e-03, -2.08100e-02, -9.00500e-03,  2.71400e-03,  1.79700e-03, -4.60700e-04],
                           [-3.81800e-01,  2.54100e-02,  4.33800e-04,  3.16400e-03, -2.51900e-03, -2.50900e-03, -1.66300e-04,  4.77300e-04],
                           [-1.26600e-01, -1.75200e-02, -1.76500e-02,  3.16700e-03,  4.61900e-03,  2.17700e-05, -1.08700e-03, -2.53800e-04],
                           [-5.13500e-02,  2.83100e-02, -2.13400e-02, -1.44500e-02,  3.16800e-04,  2.83900e-03,  6.61400e-04, -4.10300e-04],
                           [ 2.20500e-02,  2.75200e-02,  7.92700e-03, -8.76200e-03, -5.64100e-03,  1.15600e-04,  9.56700e-04,  1.83300e-04],
                           [ 2.75100e-02,  2.44900e-02,  2.27000e-02,  7.41800e-03, -2.03400e-03, -2.57100e-03, -6.84500e-04,  3.13900e-04]])

# Reaction 7
chebyshev_reaction('gQOOHg (+ M) <=> gQOOH[O] (+ M)',
                   Tmin=180.0, Tmax=1500.0,
                   Pmin=(0.01, 'atm'), Pmax=(98.692, 'atm'),
                   coeffs=[[-6.88300e+00,  7.07000e-01, -4.71200e-01,  3.80100e-02,  3.18500e-02, -5.16000e-03, -3.77500e-03,  1.08600e-03],
                           [-6.42200e+00,  1.09700e+00,  2.42900e-01, -1.85500e-02, -5.72700e-03,  3.36300e-03,  1.14900e-03, -7.44700e-04],
                           [-5.49700e+00, -9.55400e-01,  8.65400e-02,  9.60900e-02, -9.66400e-03, -9.36300e-03,  2.20700e-03,  1.36100e-03],
                           [-2.40000e+00, -4.61400e-01, -2.09700e-01,  1.00200e-02,  1.75000e-02, -1.94200e-04, -1.65400e-03, -7.92600e-07],
                           [-8.03800e-01,  2.22400e-01, -1.00900e-01, -6.36700e-02,  7.80000e-04,  5.54200e-03,  6.38200e-04, -3.61400e-04],
                           [-2.94800e-01,  2.61600e-01,  5.84500e-02, -2.43000e-02, -1.39600e-02, -5.61200e-06,  1.11500e-03,  3.00400e-04],
                           [-1.66100e-01,  2.98900e-02,  6.18600e-02,  1.88900e-02, -5.82500e-03, -3.28100e-03,  3.04900e-04,  1.06900e-04],
                           [-1.37600e-01, -1.02000e-02, -1.73400e-02,  6.54700e-03,  6.36900e-03, -5.25600e-04, -8.08000e-04,  1.21000e-04],
                           [-1.51800e-02, -2.96100e-02, -1.94400e-02, -8.26000e-03,  1.46300e-03,  1.25800e-03, -3.98600e-04, -1.36500e-04],
                           [ 3.26600e-02, -7.18100e-03,  9.87000e-03, -8.46000e-05, -4.30100e-03, -7.98800e-04,  4.43600e-05, -1.77200e-04]])

# Reaction 8
chebyshev_reaction('gQOOHb (+ M) <=> gQOOH[O] (+ M)',
                   Tmin=180.0, Tmax=1500.0,
                   Pmin=(0.01, 'atm'), Pmax=(98.692, 'atm'),
                   coeffs=[[-1.11900e+01,  7.44800e-01, -3.13900e-01, -3.18700e-02,  2.65600e-02,  1.87900e-03, -2.86100e-03, -5.98700e-05],
                           [-1.24400e+00,  1.56300e+00,  2.22600e-01, -2.86200e-02, -1.71200e-02,  6.37400e-03,  1.51700e-03, -9.01000e-04],
                           [-4.32000e+00, -3.86300e-01, -8.55800e-03,  9.44400e-02,  3.46600e-03, -1.35800e-02, -7.67400e-05,  2.20200e-03],
                           [-2.30800e+00, -2.25300e-01, -1.34900e-01, -4.51000e-03,  1.40800e-02,  1.64400e-03, -1.90800e-03, -2.65800e-04],
                           [-9.67200e-01,  1.36300e-01, -1.60300e-02, -4.07900e-02, -1.04800e-02,  4.79300e-03,  2.29300e-03, -7.17700e-04],
                           [-4.07900e-01,  1.48000e-01,  3.76700e-02, -4.58100e-03, -6.34900e-03, -2.17400e-03, -3.75600e-06,  5.10200e-04],
                           [-1.78900e-01,  1.88300e-02,  2.01500e-02,  9.05000e-03,  2.78600e-03, -6.12100e-04, -1.21900e-03, -2.04100e-04],
                           [-9.71600e-02,  1.27800e-02, -6.58400e-03, -3.93900e-03,  1.44300e-03,  2.18900e-03,  4.84100e-04, -4.06500e-04],
                           [-2.87400e-03, -8.66000e-03,  1.95100e-03, -3.34300e-03, -2.44800e-03,  2.02500e-04,  7.12600e-04,  1.53100e-04],
                           [ 1.30300e-02,  3.38700e-03,  2.72300e-03,  5.76400e-03,  3.65100e-04, -1.84000e-03, -6.92000e-04,  2.66800e-04]])

# Reaction 9
chebyshev_reaction('O2 + gR (+ M) <=> gQOOH[O] (+ M)',
                   Tmin=180.0, Tmax=1500.0,
                   Pmin=(0.01, 'atm'), Pmax=(98.692, 'atm'),
                   coeffs=[[ 5.30500e+00,  1.66700e+00, -4.79900e-01, -8.28300e-02,  5.94900e-02,  5.99800e-03, -1.08200e-02,  8.79700e-05],
                           [-6.86700e+00,  2.66800e-01,  4.86500e-01,  6.09700e-02, -6.92700e-02, -2.26100e-03,  1.24600e-02, -6.96500e-04],
                           [-3.51800e+00, -3.23500e-01, -1.75900e-02,  6.46800e-02,  8.37600e-03, -9.42700e-03, -1.30300e-03,  1.50000e-03],
                           [-1.43800e+00,  5.76900e-03, -1.04000e-01, -2.28800e-02,  1.48100e-02,  2.78500e-03, -2.44900e-03, -3.07600e-04],
                           [-5.04200e-01,  1.99400e-01,  2.19300e-02, -3.50100e-02, -1.03900e-02,  3.75800e-03,  2.10800e-03, -5.60200e-04],
                           [-1.96200e-01,  1.27000e-01,  5.37400e-02,  2.13800e-03, -5.88200e-03, -2.22600e-03,  1.57800e-04,  4.75600e-04],
                           [-9.35200e-02, -1.32200e-02,  1.79300e-02,  1.14600e-02,  3.36300e-03, -2.41700e-04, -1.02100e-03, -2.55800e-04],
                           [-7.07900e-02, -1.45000e-02, -1.55100e-02, -4.77700e-03,  1.76200e-03,  2.52700e-03,  5.39200e-04, -4.25600e-04],
                           [ 1.93000e-03, -2.31200e-02, -7.76100e-03, -4.53300e-03, -2.70500e-03,  1.52900e-04,  7.55200e-04,  1.71800e-04],
                           [ 2.17600e-02, -7.46500e-03,  2.07900e-04,  4.74900e-03,  8.30200e-05, -2.16500e-03, -7.54700e-04,  3.40100e-04]])
#  gRO2(+M) <=> gQOOHa(+M)                             1.000e+00 0.000     0.000
#      TCHEB/ 180.000   1500.000 /
#      PCHEB/ 0.010     98.692   /
#      CHEB/ 10 8/
#      CHEB/ -7.794e-01   3.874e-01    -4.573e-02   1.054e-02    1.161e-03   /
#      CHEB/ -4.644e-04   -2.727e-05   7.799e-05    3.039e+00    5.742e-01   /
#      CHEB/ -4.827e-02   1.170e-02    2.919e-03    -8.130e-04   -1.337e-05  /
#      CHEB/ 1.043e-04    -2.427e+00   1.509e-01    2.245e-02    -5.441e-04  /
#      CHEB/ 1.865e-03    -7.280e-05   -2.819e-05   2.048e-05    -1.665e+00  /
#      CHEB/ -1.791e-01   4.037e-02    -9.736e-04   -6.639e-04   4.719e-04   /
#      CHEB/ 1.681e-05    -4.655e-05   -9.609e-01   -2.616e-01   2.494e-03   /
#      CHEB/ 3.508e-03    -1.333e-03   1.724e-04    9.753e-05    -4.355e-05  /
#      CHEB/ -3.575e-01   -1.639e-01   -3.596e-02   1.064e-03    1.948e-04   /
#      CHEB/ -2.729e-04   5.183e-05    1.677e-05    -8.362e-02   -3.024e-02  /
#      CHEB/ -3.792e-02   -6.388e-03   7.790e-04    -9.728e-05   -5.517e-05  /
#      CHEB/ 4.886e-05    3.860e-02    4.912e-02    -1.203e-02   -9.330e-03  /
#      CHEB/ -7.987e-04   2.548e-04    -1.663e-05   1.954e-05    3.679e-02   /
#      CHEB/ 6.278e-02    1.349e-02    -4.340e-03   -2.370e-03   7.413e-05   /
#      CHEB/ 1.083e-04    -1.110e-05   1.816e-02    3.924e-02    2.186e-02   /
#      CHEB/ 3.422e-03    -1.773e-03   -4.610e-04   7.742e-05    -8.786e-06  /
#  gQOOH[O](+M) <=> gQOOHa(+M)                         1.000e+00 0.000     0.000
#      TCHEB/ 180.000   1500.000 /
#      PCHEB/ 0.010     98.692   /
#      CHEB/ 10 8/
#      CHEB/ 2.788e-01    1.686e-02    -3.626e-01   2.511e-02    2.190e-02   /
#      CHEB/ -2.708e-03   -2.639e-03   7.773e-04    -5.795e+00   1.191e+00   /
#      CHEB/ 5.650e-02    -4.101e-03   -2.392e-03   2.412e-03    7.836e-04   /
#      CHEB/ -7.520e-04   -4.454e+00   -2.929e-01   3.450e-02    5.567e-02   /
#      CHEB/ 1.681e-03    -8.739e-03   7.389e-04    1.323e-03    -2.422e+00  /
#      CHEB/ -2.627e-01   -5.130e-02   -4.261e-03   7.931e-03    1.127e-03   /
#      CHEB/ -1.353e-03   -9.481e-05   -1.033e+00   -2.579e-02   -5.825e-03  /
#      CHEB/ -2.081e-02   -9.005e-03   2.714e-03    1.797e-03    -4.607e-04  /
#      CHEB/ -3.910e-01   2.541e-02    4.338e-04    3.164e-03    -2.519e-03  /
#      CHEB/ -2.509e-03   -1.663e-04   4.773e-04    -1.299e-01   -1.752e-02  /
#      CHEB/ -1.765e-02   3.167e-03    4.619e-03    2.177e-05    -1.087e-03  /
#      CHEB/ -2.538e-04   -5.263e-02   2.831e-02    -2.134e-02   -1.445e-02  /
#      CHEB/ 3.168e-04    2.839e-03    6.614e-04    -4.103e-04   2.158e-02   /
#      CHEB/ 2.752e-02    7.927e-03    -8.762e-03   -5.641e-03   1.156e-04   /