units(length='cm', time='s', quantity='mol', act_energy='kcal/mol')

ideal_gas(name='gas',
          elements="H D T C Ci O Oi N Ne Ar He Si S F Cl Br I X",
          species="""OH             bQOOH[O]       acetone
                     H2O            balkoxyketone  ibutenol
                     trisub_epoxy   bQOOHg         CH2O
                     galkene        O2             bR
                     bQOOHa         bRO2           disub_epoxy
                     HO2""",
          reactions='all',
          initial_state=state(temperature=300.0, pressure=OneAtm))

#-------------------------------------------------------------------------------
# Element data
#-------------------------------------------------------------------------------

element(symbol='Ci', atomic_mass=13.003)
element(symbol='D', atomic_mass=2.014)
element(symbol='Oi', atomic_mass=18.0)
element(symbol='T', atomic_mass=3.016)
element(symbol='X', atomic_mass=195.083)
#-------------------------------------------------------------------------------
# Species data
#-------------------------------------------------------------------------------

species(name='OH',
        atoms='H:1 O:1',
        thermo=(NASA([10.00, 984.14],
                     [ 3.49686242E+00,  1.83973160E-04, -9.97634499E-07,
                       1.56942783E-09, -6.10128175E-13,  3.41673934E+03,
                       1.48093120E+00]),
                NASA([984.14, 3000.00],
                     [ 3.45221464E+00, -2.95124034E-04,  7.39418622E-07,
                      -2.89309866E-10,  3.53041498E-14,  3.45751599E+03,
                       1.85813897E+00])))

species(name='bQOOH[O]',
        atoms='C:4 H:9 O:3',
        thermo=(NASA([10.00, 338.69],
                     [ 3.60915854E+00,  3.39069566E-02,  2.22227265E-04,
                      -8.23527342E-07,  8.56246333E-10, -2.11096795E+04,
                       1.23284605E+01]),
                NASA([338.69, 3000.00],
                     [ 5.03198881E+00,  5.46235886E-02, -3.56935806E-05,
                       1.12371751E-08, -1.35390171E-12, -2.14212622E+04,
                       3.82760723E+00])))

species(name='acetone',
        atoms='C:3 H:6 O:1',
        thermo=(NASA([10.00, 414.35],
                     [ 3.73496166E+00,  3.05743218E-02, -1.26253585E-04,
                       3.66080978E-07, -3.31430437E-10, -2.67716056E+04,
                       8.24936012E+00]),
                NASA([414.35, 3000.00],
                     [ 1.70010292E-01,  3.28431468E-02, -1.80960132E-05,
                       4.82960690E-09, -5.02388538E-13, -2.62002225E+04,
                       2.56372653E+01])))

species(name='H2O',
        atoms='H:2 O:1',
        thermo=(NASA([10.00, 773.84],
                     [ 4.00473541E+00, -2.39729134E-04,  8.11862955E-07,
                       1.47891862E-09, -1.19783539E-12, -3.03533807E+04,
                      -9.96254147E-02]),
                NASA([773.84, 3000.00],
                     [ 3.52133374E+00,  1.05377009E-03,  6.40722099E-07,
                      -3.86240235E-10,  5.49243294E-14, -3.02424794E+04,
                       2.34173094E+00])))

species(name='balkoxyketone',
        atoms='C:4 H:7 O:2',
        thermo=(NASA([10.00, 269.93],
                     [ 3.81931151E+00,  1.68519318E-02,  2.42742224E-04,
                      -9.64821161E-07,  1.18509335E-09, -2.04748945E+04,
                       1.20521854E+01]),
                NASA([269.93, 3000.00],
                     [ 3.57555944E+00,  4.28868089E-02, -2.65390705E-05,
                       7.99659117E-09, -9.32983470E-13, -2.05434226E+04,
                       1.13957990E+01])))

species(name='ibutenol',
        atoms='C:4 H:8 O:1',
        thermo=(NASA([10.00, 135.97],
                     [ 3.95714996E+00,  5.72646980E-03,  4.63611760E-04,
                      -3.04137514E-06,  6.85019471E-09, -2.25584466E+04,
                       8.21931848E+00]),
                NASA([135.97, 3000.00],
                     [ 3.32467612E+00,  3.69033556E-02, -1.89960416E-05,
                       4.73417677E-09, -4.59705291E-13, -2.25528679E+04,
                       9.58133237E+00])))

species(name='trisub_epoxy',
        atoms='C:4 H:8 O:2',
        thermo=(NASA([10.00, 209.19],
                     [ 3.75295042E+00,  2.37546930E-02,  1.26610110E-04,
                      -4.78364365E-07,  5.79468168E-10, -4.00609696E+04,
                       1.12739684E+01]),
                NASA([209.19, 3000.00],
                     [ 2.64185254E+00,  4.50006531E-02, -2.57361066E-05,
                       7.15266054E-09, -7.72980731E-13, -4.00144840E+04,
                       1.48960343E+01])))

species(name='bQOOHg',
        atoms='C:4 H:9 O:3',
        thermo=(NASA([10.00, 441.09],
                     [ 3.56595280E+00,  3.36073467E-02,  2.03462772E-04,
                      -5.98977617E-07,  4.83271168E-10, -2.23191574E+04,
                       1.33537891E+01]),
                NASA([441.09, 3000.00],
                     [ 6.09031192E+00,  5.80517622E-02, -4.06392697E-05,
                       1.32574026E-08, -1.62501077E-12, -2.30023429E+04,
                      -1.97849715E+00])))

species(name='CH2O',
        atoms='C:1 H:2 O:1',
        thermo=(NASA([10.00, 601.31],
                     [ 4.03190845E+00, -1.93233367E-03,  8.89743345E-06,
                       2.98105926E-09, -7.90813886E-12, -1.42276270E+04,
                       3.47574660E+00]),
                NASA([601.31, 3000.00],
                     [ 1.40134195E+00,  9.48858016E-03, -4.43088317E-06,
                       9.48452194E-10, -7.43790219E-14, -1.38013869E+04,
                       1.57423780E+01])))

species(name='galkene',
        atoms='C:4 H:8 O:1',
        thermo=(NASA([10.00, 383.47],
                     [ 3.84035604E+00,  1.20378740E-02,  1.87486319E-04,
                      -5.44759148E-07,  4.80711015E-10, -2.27033554E+04,
                       1.02570291E+01]),
                NASA([383.47, 3000.00],
                     [ 4.00413385E+00,  3.79025144E-02, -2.15435710E-05,
                       6.15213311E-09, -6.97446345E-13, -2.29186447E+04,
                       6.98052628E+00])))

species(name='O2',
        atoms='O:2',
        thermo=(NASA([10.00, 605.96],
                     [ 3.50743498E+00, -4.43860349E-04,  1.45938058E-06,
                       1.61509333E-09, -2.32050052E-12, -9.24756224E+02,
                       4.72183634E+00]),
                NASA([605.96, 3000.00],
                     [ 2.87462882E+00,  2.17840991E-03, -1.18262921E-06,
                       2.86910493E-10, -2.53297146E-14, -8.19517838E+02,
                       7.69331810E+00])))

species(name='bR',
        atoms='C:4 H:9 O:1',
        thermo=(NASA([10.00, 483.43],
                     [ 3.38164846E+00,  5.97142637E-02, -1.58320095E-04,
                       3.04908893E-07, -2.13091806E-10, -1.21661043E+04,
                       1.09226843E+01]),
                NASA([483.43, 3000.00],
                     [ 2.33428824E+00,  4.22094427E-02, -2.28029290E-05,
                       6.04614564E-09, -6.30240159E-13, -1.17590223E+04,
                       1.83772893E+01])))

species(name='bQOOHa',
        atoms='C:4 H:9 O:3',
        thermo=(NASA([10.00, 390.53],
                     [ 3.54969236E+00,  3.76592474E-02,  1.76622653E-04,
                      -5.98063750E-07,  5.45069236E-10, -2.73497129E+04,
                       1.31518761E+01]),
                NASA([390.53, 3000.00],
                     [ 5.33564209E+00,  5.64935715E-02, -3.83214298E-05,
                       1.22990604E-08, -1.49549987E-12, -2.77723228E+04,
                       2.59015836E+00])))

species(name='bRO2',
        atoms='C:4 H:9 O:3',
        thermo=(NASA([10.00, 461.39],
                     [ 3.53964713E+00,  3.88723795E-02,  9.57420148E-05,
                      -2.80380499E-07,  2.09647462E-10, -3.33212976E+04,
                       1.18803618E+01]),
                NASA([461.39, 3000.00],
                     [ 3.47201723E+00,  6.00510247E-02, -4.00567321E-05,
                       1.25663813E-08, -1.49496682E-12, -3.35342444E+04,
                       9.77903975E+00])))

species(name='disub_epoxy',
        atoms='C:4 H:8 O:2',
        thermo=(NASA([10.00, 549.41],
                     [ 3.89863211E+00,  5.97532637E-03,  1.66685676E-04,
                      -3.10743768E-07,  1.78330192E-10, -3.51272642E+04,
                       1.13847308E+01]),
                NASA([549.41, 3000.00],
                     [-6.40277648E-01,  6.05960003E-02, -4.13427220E-05,
                       1.31555461E-08, -1.57685017E-12, -3.49541473E+04,
                       2.76005436E+01])))

species(name='HO2',
        atoms='H:1 O:2',
        thermo=(NASA([10.00, 891.11],
                     [ 4.02887004E+00, -1.75769289E-03,  1.08726004E-05,
                      -1.13812972E-08,  3.90113097E-12,  4.95165001E+02,
                       4.69302008E+00]),
                NASA([891.11, 3000.00],
                     [ 3.06571044E+00,  4.28505005E-03, -2.19325920E-06,
                       5.58882699E-10, -5.61246669E-14,  5.98557610E+02,
                       8.84564156E+00])))

#-------------------------------------------------------------------------------
# Reaction data
#-------------------------------------------------------------------------------

# Reaction 1
chebyshev_reaction('bQOOHg (+ M) <=> bRO2 (+ M)',
                   Tmin=180.0, Tmax=1500.0,
                   Pmin=(0.01, 'atm'), Pmax=(98.692, 'atm'),
                   coeffs=[[ 1.19100e+00,  9.36000e-01,  6.02100e-03, -4.92300e-03, -4.25900e-03, -2.78100e-04,  4.71000e-04,  9.90500e-05],
                           [-1.59700e+00,  1.29000e+00,  7.36900e-02, -1.32900e-02, -5.13100e-03, -2.88500e-04,  5.66000e-04,  1.20200e-04],
                           [-2.67400e+00,  4.16400e-01,  3.86200e-02,  1.18800e-02,  8.47300e-05, -6.08800e-04,  9.69400e-05, -7.15000e-06],
                           [-1.54600e+00, -6.55100e-02, -4.69200e-02,  1.67600e-02,  7.03500e-03,  5.47700e-05, -4.17500e-04, -1.10900e-04],
                           [-8.18300e-01, -1.48900e-01, -6.92700e-02,  8.71900e-04,  5.61500e-03,  1.27100e-03, -1.91000e-04, -1.49400e-04],
                           [-4.11700e-01, -7.56200e-02, -3.47400e-02, -6.26400e-03, -6.96200e-04,  4.76700e-04,  2.43900e-04,  3.72400e-05],
                           [-1.69100e-01, -1.97300e-02,  2.48100e-03, -1.43400e-03, -2.75800e-03, -9.49300e-04,  2.71800e-05,  1.57000e-04],
                           [-7.82400e-02, -7.47700e-03,  1.09100e-02,  3.95800e-03, -4.74800e-04, -8.10300e-04, -3.38900e-04,  1.85200e-05],
                           [-4.39500e-02, -1.48300e-02,  1.79200e-03,  2.98300e-03,  1.46600e-03,  3.28100e-04, -2.15500e-04, -1.21100e-04],
                           [-3.29300e-03, -1.95900e-02, -5.72800e-03, -1.49200e-03,  1.09700e-03,  8.39100e-04,  1.40400e-04, -6.54400e-05]])

# Reaction 2
chebyshev_reaction('bQOOHa (+ M) <=> bRO2 (+ M)',
                   Tmin=180.0, Tmax=1500.0,
                   Pmin=(0.01, 'atm'), Pmax=(98.692, 'atm'),
                   coeffs=[[-9.76600e-01,  1.73700e+00, -1.97900e-01,  5.31700e-02, -1.62500e-02, -1.78800e-03,  2.18200e-03, -4.20300e-04],
                           [ 2.88500e-01,  1.07400e+00,  3.22000e-01, -6.92100e-02, -2.22800e-03,  1.42000e-04,  4.01400e-04,  3.88500e-04],
                           [-2.34800e+00,  1.70900e-02,  8.82700e-02,  1.12500e-02,  3.54200e-03,  1.19400e-03, -1.21400e-03,  5.61300e-05],
                           [-1.22500e+00, -2.76300e-01, -5.82600e-02,  6.53700e-03,  1.04600e-02,  2.17300e-03, -1.15000e-03, -1.74400e-04],
                           [-7.05700e-01, -1.04400e-01, -9.15500e-02,  5.69000e-03,  2.91500e-03, -8.84500e-04,  4.24500e-04, -1.55600e-05],
                           [-2.31400e-01, -1.17600e-01,  1.14400e-02, -3.77200e-03, -2.74100e-03, -9.53400e-04, -2.57000e-04,  3.57500e-04],
                           [-1.70400e-01, -1.56300e-02,  3.58900e-04,  7.07400e-03, -1.75900e-03, -1.00800e-03,  2.54000e-05,  1.72700e-05],
                           [-7.17300e-02, -1.63800e-02, -3.87300e-05,  1.60400e-03,  1.11000e-03,  1.08500e-04,  1.74900e-04, -8.35900e-05],
                           [-4.62300e-02, -7.02400e-03, -1.16000e-02, -7.76100e-04,  8.52400e-04,  5.85900e-04,  2.41900e-04, -9.11300e-05],
                           [-2.43000e-02, -1.17300e-02, -8.80500e-03, -2.36600e-03, -4.33700e-04,  5.53200e-04,  6.01600e-06, -2.49200e-05]])

# Reaction 3
chebyshev_reaction('bQOOH[O] (+ M) <=> bRO2 (+ M)',
                   Tmin=180.0, Tmax=1500.0,
                   Pmin=(0.01, 'atm'), Pmax=(98.692, 'atm'),
                   coeffs=[[ 4.74000e+00,  2.02700e+00, -3.78500e-02, -1.01500e-02, -4.11400e-03, -8.26100e-04, -1.21700e-04,  2.54600e-05],
                           [-6.01000e+00,  1.86300e-01,  3.66700e-03,  8.71500e-03,  4.74900e-04,  8.97000e-04,  5.74100e-04,  1.62100e-04],
                           [-3.05600e+00,  7.81800e-02, -3.31600e-02, -6.80300e-03, -3.25400e-03, -5.83400e-04, -4.38600e-05,  4.20400e-05],
                           [-1.55400e+00,  8.90000e-02,  1.81600e-04,  2.41100e-03, -4.66500e-05, -7.17100e-06, -2.12100e-05, -5.31300e-05],
                           [-8.25900e-01,  4.78400e-02,  5.86500e-03,  2.29100e-03,  6.28000e-04,  6.06200e-05,  1.23700e-06,  9.60900e-07],
                           [-3.97900e-01,  7.00600e-03,  4.43400e-03, -4.21900e-05,  1.21000e-04, -1.23800e-04, -7.00100e-05, -1.83300e-05],
                           [-2.14000e-01, -1.45600e-02,  4.48600e-03, -1.92300e-04,  9.55400e-05, -9.46200e-05, -7.22900e-05, -1.29000e-05],
                           [-1.47700e-01, -2.66900e-02,  1.04500e-03, -5.49500e-04, -7.96900e-05, -2.23600e-05, -1.34200e-05,  7.74200e-06],
                           [-7.02700e-02, -2.57400e-02, -1.92400e-03, -4.85700e-04, -9.59300e-05,  3.54500e-05, -6.45700e-06,  5.93300e-06],
                           [ 1.99200e-02, -1.56100e-02, -2.35400e-03,  8.67600e-05, -1.53200e-04, -3.41500e-05, -4.69300e-06, -1.23800e-06]])

# Reaction 4
chebyshev_reaction('O2 + bR (+ M) <=> bRO2 (+ M)',
                   Tmin=180.0, Tmax=1500.0,
                   Pmin=(0.01, 'atm'), Pmax=(98.692, 'atm'),
                   coeffs=[[ 1.28100e+01,  6.01500e-01, -7.35400e-02,  1.41600e-02, -3.77300e-03,  8.05000e-04, -1.28000e-04,  1.14400e-05],
                           [-2.01500e+00,  9.81700e-01, -8.13700e-02,  1.07600e-02, -2.61600e-03,  3.04000e-04,  4.47100e-05, -3.53500e-05],
                           [-1.42700e+00,  5.59100e-01,  7.11600e-03, -2.66400e-03, -3.19300e-04, -8.43100e-05,  8.27500e-05, -3.00700e-05],
                           [-9.61900e-01,  2.08300e-01,  4.13200e-02, -9.54200e-04, -4.97700e-04, -1.60700e-04,  7.71700e-05, -1.56300e-05],
                           [-5.89100e-01,  1.91500e-02,  3.09200e-02,  3.48400e-03,  6.32600e-05, -2.86400e-04,  2.87300e-05,  7.09600e-06],
                           [-3.35800e-01, -4.91000e-02,  1.14000e-02,  3.35900e-03,  9.29300e-04, -1.46400e-04, -5.04100e-05,  1.30500e-05],
                           [-1.77200e-01, -5.83200e-02, -4.14300e-04,  9.45900e-04,  9.14500e-04,  1.20400e-04, -5.64500e-05, -8.14500e-07],
                           [-8.28700e-02, -4.67000e-02, -4.79800e-03, -5.72200e-04,  3.00600e-04,  2.02000e-04, -3.61000e-06, -6.29400e-06],
                           [-2.96600e-02, -3.06700e-02, -5.77800e-03, -8.28900e-04, -1.50900e-04,  1.01000e-04,  2.76600e-05,  1.10200e-06],
                           [-2.16500e-03, -1.59000e-02, -5.53300e-03, -6.87000e-04, -2.37300e-04, -4.37500e-06,  1.90300e-05,  5.47100e-06]])
#  bRO2(+M) <=> bQOOHg(+M)                             1.000e+00 0.000     0.000
#      TCHEB/ 180.000   1500.000 /
#      PCHEB/ 0.010     98.692   /
#      CHEB/ 10 8/
#      CHEB/ -1.272e+01   9.360e-01    6.021e-03    -4.923e-03   -4.259e-03  /
#      CHEB/ -2.781e-04   4.710e-04    9.905e-05    1.048e+01    1.290e+00   /
#      CHEB/ 7.369e-02    -1.329e-02   -5.131e-03   -2.885e-04   5.660e-04   /
#      CHEB/ 1.202e-04    -2.528e+00   4.164e-01    3.862e-02    1.188e-02   /
#      CHEB/ 8.473e-05    -6.088e-04   9.694e-05    -7.150e-06   -1.509e+00  /
#      CHEB/ -6.551e-02   -4.692e-02   1.676e-02    7.035e-03    5.477e-05   /
#      CHEB/ -4.175e-04   -1.109e-04   -8.126e-01   -1.489e-01   -6.927e-02  /
#      CHEB/ 8.719e-04    5.615e-03    1.271e-03    -1.910e-04   -1.494e-04  /
#      CHEB/ -4.118e-01   -7.562e-02   -3.474e-02   -6.264e-03   -6.962e-04  /
#      CHEB/ 4.767e-04    2.439e-04    3.724e-05    -1.697e-01   -1.973e-02  /
#      CHEB/ 2.481e-03    -1.434e-03   -2.758e-03   -9.493e-04   2.718e-05   /
#      CHEB/ 1.570e-04    -7.869e-02   -7.477e-03   1.091e-02    3.958e-03   /
#      CHEB/ -4.748e-04   -8.103e-04   -3.389e-04   1.852e-05    -4.427e-02  /
#      CHEB/ -1.483e-02   1.792e-03    2.983e-03    1.466e-03    3.281e-04   /
#      CHEB/ -2.155e-04   -1.211e-04   -3.480e-03   -1.959e-02   -5.728e-03  /
#      CHEB/ -1.492e-03   1.097e-03    8.391e-04    1.404e-04    -6.544e-05  /

# Reaction 5
chebyshev_reaction('bQOOHa (+ M) <=> bQOOHg (+ M)',
                   Tmin=180.0, Tmax=1500.0,
                   Pmin=(0.01, 'atm'), Pmax=(98.692, 'atm'),
                   coeffs=[[-1.49600e+01,  2.11400e+00, -5.47200e-02, -8.30700e-02, -4.24500e-02,  1.75100e-02,  8.20900e-03, -4.57700e-03],
                           [ 4.19800e+00,  1.41400e+00,  4.30200e-01,  8.16900e-02,  1.05200e-02, -2.91900e-02, -6.69600e-03,  6.93300e-03],
                           [-2.78600e+00, -1.00900e-01, -3.86100e-02,  1.74400e-02,  2.03000e-02,  9.62200e-03, -1.03000e-03, -2.15800e-03],
                           [-1.61300e+00, -4.03400e-01, -1.56100e-01, -1.00700e-02,  6.28800e-03,  5.19500e-03,  9.91700e-04, -4.63700e-04],
                           [-8.07300e-01, -1.55400e-01, -1.08200e-01,  2.87800e-03, -4.62200e-03, -3.54900e-03,  7.05900e-04,  6.15500e-04],
                           [-3.32300e-01, -5.17900e-02,  1.17100e-02, -3.71700e-03, -4.10100e-03, -1.94700e-03, -7.23300e-04,  2.74800e-04],
                           [-1.39900e-01,  1.39000e-02,  1.88700e-02,  1.18500e-02, -9.62600e-04, -1.19500e-03, -5.05100e-04, -1.65000e-04],
                           [-7.08100e-02, -1.82300e-03,  1.38600e-02,  8.63700e-03,  3.16700e-03,  1.06100e-05, -2.48400e-04, -1.28000e-04],
                           [-4.51500e-02, -1.09100e-02, -5.78100e-03,  3.15900e-03,  2.43700e-03,  1.00700e-03,  3.01200e-04, -6.87200e-05],
                           [-8.89100e-03, -2.86200e-02, -1.25500e-02, -2.55500e-03,  8.62400e-04,  1.00500e-03,  6.07900e-05,  2.92600e-05]])

# Reaction 6
chebyshev_reaction('bQOOH[O] (+ M) <=> bQOOHg (+ M)',
                   Tmin=180.0, Tmax=1500.0,
                   Pmin=(0.01, 'atm'), Pmax=(98.692, 'atm'),
                   coeffs=[[-7.74900e+00,  1.48300e+00,  1.52700e-01,  1.53200e-02, -2.32300e-02, -1.18700e-02, -1.43900e-03,  1.12600e-03],
                           [-3.54500e+00,  1.10700e+00, -7.70300e-02, -1.53500e-03,  2.77100e-02,  1.29100e-02, -1.25800e-04, -2.16700e-03],
                           [-3.30100e+00,  3.07000e-01, -5.60100e-02, -3.49400e-02, -1.58800e-02,  2.38500e-03,  4.28300e-03,  1.27400e-03],
                           [-1.87500e+00, -9.07700e-02, -5.37200e-02,  1.01600e-02, -2.55500e-03, -2.84400e-03, -2.03100e-04,  4.67000e-04],
                           [-9.45200e-01, -8.45900e-02, -4.39300e-02,  9.27500e-03,  4.09600e-03, -1.17300e-03, -1.30800e-03, -2.91700e-04],
                           [-3.94300e-01, -1.40900e-03, -1.52800e-02, -4.88400e-04,  1.49000e-03,  1.40000e-04, -4.93800e-04, -2.51300e-04],
                           [-1.69200e-01,  2.09700e-02,  1.09500e-02, -2.71500e-04, -5.61300e-04, -5.55800e-05,  1.51900e-04,  2.42300e-05],
                           [-1.20900e-01,  2.22700e-03,  1.27300e-02,  2.80100e-03,  6.32800e-04, -1.93700e-04, -1.53200e-04,  5.25600e-05],
                           [-6.77800e-02, -1.49800e-02,  4.34000e-03,  1.89100e-03,  9.31000e-04,  2.75000e-04,  1.94100e-06,  2.02100e-06],
                           [ 2.04100e-02, -2.11600e-02, -5.15700e-03, -1.84400e-03,  1.12100e-03,  8.49600e-04,  6.66000e-05, -9.17900e-05]])

# Reaction 7
chebyshev_reaction('O2 + bR (+ M) <=> bQOOHg (+ M)',
                   Tmin=180.0, Tmax=1500.0,
                   Pmin=(0.01, 'atm'), Pmax=(98.692, 'atm'),
                   coeffs=[[ 2.92700e+00,  1.46600e+00,  1.14800e-02, -1.83400e-01, -4.55400e-02,  2.81900e-02,  1.36600e-02, -4.41100e-03],
                           [-1.93500e+00,  1.00500e+00,  1.85100e-01,  1.76600e-01,  4.39400e-04, -3.87200e-02, -1.07400e-02,  7.84400e-03],
                           [-1.73400e+00,  1.03000e-01, -5.59500e-02,  6.46900e-02,  3.58200e-02,  5.61000e-04, -5.73700e-03, -2.71200e-03],
                           [-1.12000e+00, -1.19200e-01, -9.49700e-02, -1.47700e-02,  1.71000e-02,  8.99200e-03,  1.17400e-03, -1.75500e-03],
                           [-5.65500e-01, -7.39200e-02, -3.51400e-02, -3.13600e-02, -4.32300e-03,  2.98400e-03,  2.77200e-03,  5.06800e-04],
                           [-2.36700e-01, -8.79900e-03,  1.91000e-02, -1.65700e-02, -9.11400e-03, -2.04700e-03,  1.01200e-03,  8.55600e-04],
                           [-7.39600e-02,  6.74200e-03,  3.69800e-02,  6.31000e-05, -4.05800e-03, -2.63700e-03, -6.06800e-04,  2.46000e-04],
                           [-2.27300e-02, -8.61200e-03,  2.98100e-02,  7.98500e-03,  2.94500e-04, -1.28100e-03, -7.38900e-04, -5.76300e-05],
                           [-5.32300e-03, -2.53500e-02,  1.00700e-02,  7.02700e-03,  2.40400e-03,  2.83500e-04, -4.12400e-04, -1.76800e-04],
                           [-3.56600e-03, -2.65100e-02, -4.71000e-03,  2.47800e-03,  1.74200e-03,  7.06300e-04,  3.58400e-05, -4.35500e-05]])
#  bRO2(+M) <=> bQOOHa(+M)                             1.000e+00 0.000     0.000
#      TCHEB/ 180.000   1500.000 /
#      PCHEB/ 0.010     98.692   /
#      CHEB/ 10 8/
#      CHEB/ -8.197e+00   1.737e+00    -1.979e-01   5.317e-02    -1.625e-02  /
#      CHEB/ -1.788e-03   2.182e-03    -4.203e-04   6.873e+00    1.074e+00   /
#      CHEB/ 3.220e-01    -6.921e-02   -2.228e-03   1.420e-04    4.014e-04   /
#      CHEB/ 3.885e-04    -2.293e+00   1.709e-02    8.827e-02    1.125e-02   /
#      CHEB/ 3.542e-03    1.194e-03    -1.214e-03   5.613e-05    -1.223e+00  /
#      CHEB/ -2.763e-01   -5.826e-02   6.537e-03    1.046e-02    2.173e-03   /
#      CHEB/ -1.150e-03   -1.744e-04   -7.105e-01   -1.044e-01   -9.155e-02  /
#      CHEB/ 5.690e-03    2.915e-03    -8.845e-04   4.245e-04    -1.556e-05  /
#      CHEB/ -2.342e-01   -1.176e-01   1.144e-02    -3.772e-03   -2.741e-03  /
#      CHEB/ -9.534e-04   -2.570e-04   3.575e-04    -1.718e-01   -1.563e-02  /
#      CHEB/ 3.589e-04    7.074e-03    -1.759e-03   -1.008e-03   2.540e-05   /
#      CHEB/ 1.727e-05    -7.246e-02   -1.638e-02   -3.873e-05   1.604e-03   /
#      CHEB/ 1.110e-03    1.085e-04    1.749e-04    -8.359e-05   -4.657e-02  /
#      CHEB/ -7.024e-03   -1.160e-02   -7.761e-04   8.524e-04    5.859e-04   /
#      CHEB/ 2.419e-04    -9.113e-05   -2.442e-02   -1.173e-02   -8.805e-03  /
#      CHEB/ -2.366e-03   -4.337e-04   5.532e-04    6.016e-06    -2.492e-05  /
#  bQOOHg(+M) <=> bQOOHa(+M)                           1.000e+00 0.000     0.000
#      TCHEB/ 180.000   1500.000 /
#      PCHEB/ 0.010     98.692   /
#      CHEB/ 10 8/
#      CHEB/ -8.270e+00   2.114e+00    -5.472e-02   -8.307e-02   -4.245e-02  /
#      CHEB/ 1.751e-02    8.209e-03    -4.577e-03   -1.290e+00   1.414e+00   /
#      CHEB/ 4.302e-01    8.169e-02    1.052e-02    -2.919e-02   -6.696e-03  /
#      CHEB/ 6.933e-03    -2.876e+00   -1.009e-01   -3.861e-02   1.744e-02   /
#      CHEB/ 2.030e-02    9.622e-03    -1.030e-03   -2.158e-03   -1.649e+00  /
#      CHEB/ -4.034e-01   -1.561e-01   -1.007e-02   6.288e-03    5.195e-03   /
#      CHEB/ 9.917e-04    -4.637e-04   -8.179e-01   -1.554e-01   -1.082e-01  /
#      CHEB/ 2.878e-03    -4.622e-03   -3.549e-03   7.059e-04    6.155e-04   /
#      CHEB/ -3.350e-01   -5.179e-02   1.171e-02    -3.717e-03   -4.101e-03  /
#      CHEB/ -1.947e-03   -7.233e-04   2.748e-04    -1.406e-01   1.390e-02   /
#      CHEB/ 1.887e-02    1.185e-02    -9.626e-04   -1.195e-03   -5.051e-04  /
#      CHEB/ -1.650e-04   -7.108e-02   -1.823e-03   1.386e-02    8.637e-03   /
#      CHEB/ 3.167e-03    1.061e-05    -2.484e-04   -1.280e-04   -4.518e-02  /
#      CHEB/ -1.091e-02   -5.781e-03   3.159e-03    2.437e-03    1.007e-03   /
#      CHEB/ 3.012e-04    -6.872e-05   -8.824e-03   -2.862e-02   -1.255e-02  /
#      CHEB/ -2.555e-03   8.624e-04    1.005e-03    6.079e-05    2.926e-05   /

# Reaction 8
chebyshev_reaction('bQOOH[O] (+ M) <=> bQOOHa (+ M)',
                   Tmin=180.0, Tmax=1500.0,
                   Pmin=(0.01, 'atm'), Pmax=(98.692, 'atm'),
                   coeffs=[[-4.96200e+00,  2.86200e+00, -1.65100e-01, -2.42600e-02, -6.17300e-03,  4.40400e-03, -4.58800e-03, -2.13800e-03],
                           [-5.51400e+00,  5.40200e-01,  3.59600e-01,  5.76300e-03, -1.77500e-02, -4.31800e-03,  8.73600e-03,  1.59100e-03],
                           [-3.18000e+00, -3.23100e-01, -4.72000e-02,  5.42800e-03,  3.41300e-03, -8.34800e-04, -1.28800e-03,  1.50100e-03],
                           [-1.64500e+00, -2.23300e-01, -6.59700e-02,  4.60700e-03,  6.02700e-03, -3.36200e-04, -2.18900e-03, -8.48500e-05],
                           [-8.50000e-01,  2.22600e-03, -4.28500e-02,  9.45500e-03, -1.68900e-03, -1.59700e-03,  3.24600e-04, -4.33500e-04],
                           [-3.44200e-01, -9.16900e-03,  2.72300e-02, -5.63400e-03, -1.61600e-03,  3.66300e-04, -2.06600e-04, -1.06200e-04],
                           [-1.89000e-01,  1.25700e-02,  1.29300e-02,  6.60700e-03, -1.12700e-03, -3.79500e-04,  2.86100e-04,  4.56200e-05],
                           [-1.37800e-01, -1.53800e-02,  4.97500e-03,  2.83500e-03,  1.61100e-03, -1.30300e-04,  6.87900e-05,  6.03900e-05],
                           [-7.22700e-02, -2.04000e-02, -7.85600e-03,  1.54900e-03,  8.91000e-04, -4.36200e-05,  6.46400e-05,  7.76200e-05],
                           [ 1.77100e-02, -1.80800e-02, -7.04300e-03, -5.35000e-04, -6.24400e-04,  2.27400e-04,  2.89700e-05, -1.34100e-05]])

# Reaction 9
chebyshev_reaction('O2 + bR (+ M) <=> bQOOHa (+ M)',
                   Tmin=180.0, Tmax=1500.0,
                   Pmin=(0.01, 'atm'), Pmax=(98.692, 'atm'),
                   coeffs=[[ 3.72700e+00,  2.38500e+00,  2.10200e-01,  2.95700e-02, -6.27300e-02, -1.07200e-02,  1.15200e-03, -1.53900e-03],
                           [-2.14400e+00,  3.45400e-01, -1.26500e-01,  6.02800e-04,  5.09000e-02,  1.26800e-02,  8.83700e-04,  1.38400e-03],
                           [-1.59800e+00,  6.10400e-02, -5.44800e-02, -9.35700e-03,  4.29700e-03,  1.25400e-03, -9.84800e-04,  4.46600e-04],
                           [-9.85300e-01, -2.07300e-02,  2.73100e-03, -1.21600e-02, -6.64200e-03, -2.01100e-03, -3.41200e-04, -2.44300e-05],
                           [-5.78500e-01,  1.36400e-02,  3.79000e-03,  1.18800e-02, -4.91800e-03, -3.35600e-03,  6.06600e-04, -8.28500e-05],
                           [-2.70300e-01, -5.60200e-02,  4.65100e-02,  2.91500e-03,  1.67300e-04, -6.12700e-04, -5.27400e-04,  7.96400e-05],
                           [-1.47500e-01, -3.16400e-02,  1.32700e-02,  1.11600e-02,  1.77800e-03, -6.37400e-05, -1.02300e-04, -7.78200e-05],
                           [-7.12800e-02, -3.92100e-02,  4.72200e-04,  4.02700e-03,  3.26500e-03,  3.92500e-04,  1.99800e-05, -1.91000e-05],
                           [-3.01800e-02, -2.85000e-02, -1.23600e-02,  4.99700e-04,  1.23100e-03,  4.13800e-04,  2.28000e-04,  1.73000e-05],
                           [-4.40800e-03, -2.19900e-02, -1.10600e-02, -1.97600e-03, -7.29000e-04,  3.14500e-04,  1.33700e-04,  3.63900e-05]])
#  bRO2(+M) <=> bQOOH[O](+M)                           1.000e+00 0.000     0.000
#      TCHEB/ 180.000   1500.000 /
#      PCHEB/ 0.010     98.692   /
#      CHEB/ 10 8/
#      CHEB/ -1.132e+01   2.027e+00    -3.785e-02   -1.015e-02   -4.114e-03  /
#      CHEB/ -8.261e-04   -1.217e-04   2.546e-05    7.076e+00    1.863e-01   /
#      CHEB/ 3.667e-03    8.715e-03    4.749e-04    8.970e-04    5.741e-04   /
#      CHEB/ 1.621e-04    -3.062e+00   7.818e-02    -3.316e-02   -6.803e-03  /
#      CHEB/ -3.254e-03   -5.834e-04   -4.386e-05   4.204e-05    -1.575e+00  /
#      CHEB/ 8.900e-02    1.816e-04    2.411e-03    -4.665e-05   -7.171e-06  /
#      CHEB/ -2.121e-05   -5.313e-05   -8.366e-01   4.784e-02    5.865e-03   /
#      CHEB/ 2.291e-03    6.280e-04    6.062e-05    1.237e-06    9.609e-07   /
#      CHEB/ -4.018e-01   7.006e-03    4.434e-03    -4.219e-05   1.210e-04   /
#      CHEB/ -1.238e-04   -7.001e-05   -1.833e-05   -2.155e-01   -1.456e-02  /
#      CHEB/ 4.486e-03    -1.923e-04   9.554e-05    -9.462e-05   -7.229e-05  /
#      CHEB/ -1.290e-05   -1.483e-01   -2.669e-02   1.045e-03    -5.495e-04  /
#      CHEB/ -7.969e-05   -2.236e-05   -1.342e-05   7.742e-06    -7.044e-02  /
#      CHEB/ -2.574e-02   -1.924e-03   -4.857e-04   -9.593e-05   3.545e-05   /
#      CHEB/ -6.457e-06   5.933e-06    1.993e-02    -1.561e-02   -2.354e-03  /
#      CHEB/ 8.676e-05    -1.532e-04   -3.415e-05   -4.693e-06   -1.238e-06  /
#  bQOOHg(+M) <=> bQOOH[O](+M)                         1.000e+00 0.000     0.000
#      TCHEB/ 180.000   1500.000 /
#      PCHEB/ 0.010     98.692   /
#      CHEB/ 10 8/
#      CHEB/ -9.897e+00   1.483e+00    1.527e-01    1.532e-02    -2.323e-02  /
#      CHEB/ -1.187e-02   -1.439e-03   1.126e-03    -2.532e+00   1.107e+00   /
#      CHEB/ -7.703e-02   -1.535e-03   2.771e-02    1.291e-02    -1.258e-04  /
#      CHEB/ -2.167e-03   -3.453e+00   3.070e-01    -5.601e-02   -3.494e-02  /
#      CHEB/ -1.588e-02   2.385e-03    4.283e-03    1.274e-03    -1.933e+00  /