units(length='cm', time='s', quantity='mol', act_energy='kcal/mol')

ideal_gas(name='gas',
          elements="H D T C Ci O Oi N Ne Ar He Si S F Cl Br I X",
          species="""aOOHbalkene      OH               ibutanal
                     aR               performic_acid   disub_c4ether
                     aQOOHb           H                aadduct
                     trisub_epoxy     ibutenol         aQOOH[O]
                     ipropyl          aRO2             O2
                     formic_acid      propene          aQOOHg
                     ibut_peroxyacid  HO2              CH3""",
          reactions='all',
          initial_state=state(temperature=300.0, pressure=OneAtm))

#-------------------------------------------------------------------------------
# Element data
#-------------------------------------------------------------------------------

element(symbol='Ci', atomic_mass=13.003)
element(symbol='D', atomic_mass=2.014)
element(symbol='Oi', atomic_mass=18.0)
element(symbol='T', atomic_mass=3.016)
element(symbol='X', atomic_mass=195.083)
#-------------------------------------------------------------------------------
# Species data
#-------------------------------------------------------------------------------

species(name='aOOHbalkene',
        atoms='C:3 H:6 O:3',
        thermo=(NASA([10.00, 497.41],
                     [ 3.76691735E+00,  1.51417956E-02,  1.85499431E-04,
                      -4.61303214E-07,  3.27678941E-10, -3.17201974E+04,
                       1.09903968E+01]),
                NASA([497.41, 3000.00],
                     [ 6.20882781E+00,  4.08866173E-02, -2.89934946E-05,
                       9.60428979E-09, -1.19355432E-12, -3.25245268E+04,
                      -4.72842811E+00])))

species(name='OH',
        atoms='H:1 O:1',
        thermo=(NASA([10.00, 984.14],
                     [ 3.49686242E+00,  1.83973160E-04, -9.97634499E-07,
                       1.56942783E-09, -6.10128175E-13,  3.41673934E+03,
                       1.48093120E+00]),
                NASA([984.14, 3000.00],
                     [ 3.45221464E+00, -2.95124034E-04,  7.39418622E-07,
                      -2.89309866E-10,  3.53041498E-14,  3.45751599E+03,
                       1.85813897E+00])))

species(name='ibutanal',
        atoms='C:4 H:8 O:1',
        thermo=(NASA([10.00, 683.88],
                     [ 3.57157346E+00,  3.36936906E-02, -1.78475021E-05,
                       1.31946716E-08, -7.58008388E-12, -2.83960297E+04,
                       1.05595084E+01]),
                NASA([683.88, 3000.00],
                     [ 1.29043622E+00,  4.14804229E-02, -2.27411206E-05,
                       6.08619500E-09, -6.38995128E-13, -2.79541105E+04,
                       2.16477430E+01])))

species(name='aR',
        atoms='C:4 H:9 O:1',
        thermo=(NASA([10.00, 455.22],
                     [ 3.59625500E+00,  3.38947981E-02,  7.37257079E-06,
                      -3.99275335E-08,  2.49019944E-11, -1.31047992E+04,
                       1.18269265E+01]),
                NASA([455.22, 3000.00],
                     [ 2.49586309E+00,  4.35639890E-02, -2.44887770E-05,
                       6.73363769E-09, -7.23862433E-13, -1.30046161E+04,
                       1.62696907E+01])))

species(name='performic_acid',
        atoms='C:1 H:2 O:3',
        thermo=(NASA([10.00, 590.95],
                     [ 3.92633851E+00,  4.24517168E-03,  6.71106764E-05,
                      -1.36545385E-07,  8.03337864E-11, -3.63028176E+04,
                       8.06485813E+00]),
                NASA([590.95, 3000.00],
                     [ 4.39992934E+00,  1.85411415E-02, -1.36005501E-05,
                       4.62292431E-09, -5.88463603E-13, -3.66643888E+04,
                       3.44353230E+00])))

species(name='disub_c4ether',
        atoms='C:4 H:8 O:2',
        thermo=(NASA([10.00, 413.50],
                     [ 3.78241323E+00,  1.89501763E-02,  8.65302396E-05,
                      -1.80580575E-07,  1.13656264E-10, -3.75471965E+04,
                       1.09982450E+01]),
                NASA([413.50, 3000.00],
                     [ 4.29420885E-01,  5.13851903E-02, -3.11292293E-05,
                       9.11498284E-09, -1.03192718E-12, -3.72699022E+04,
                       2.42134976E+01])))

species(name='aQOOHb',
        atoms='C:4 H:9 O:3',
        thermo=(NASA([10.00, 412.78],
                     [ 3.15498836E+00,  8.55068303E-02, -2.35307993E-04,
                       4.71983261E-07, -3.62709267E-10, -3.07463196E+04,
                       1.52522123E+01]),
                NASA([412.78, 3000.00],
                     [ 4.18099845E+00,  5.26168288E-02, -3.23998410E-05,
                       9.59389339E-09, -1.09464519E-12, -3.06355247E+04,
                       1.35782328E+01])))

species(name='H',
        atoms='H:1',
        thermo=(NASA([10.00, 794.01],
                     [ 2.50000000E+00,  1.99051163E-15, -1.19089508E-17,
                       2.10805655E-20, -1.11017699E-23,  2.54725594E+04,
                      -4.61279342E-01]),
                NASA([794.01, 3000.00],
                     [ 2.50000000E+00,  1.52667235E-14, -1.58445285E-17,
                       6.63088600E-21, -9.62111674E-25,  2.54725594E+04,
                      -4.61279342E-01])))

species(name='aadduct',
        atoms='C:4 H:9 O:3',
        thermo=(NASA([10.00, 449.84],
                     [ 3.06901904E+00,  9.20724491E-02, -2.68085092E-04,
                       5.15249897E-07, -3.68046586E-10, -2.88859737E+04,
                       1.46591735E+01]),
                NASA([449.84, 3000.00],
                     [ 4.11210745E+00,  5.16955724E-02, -2.97401041E-05,
                       8.32758939E-09, -9.08861448E-13, -2.86651327E+04,
                       1.39578825E+01])))

species(name='trisub_epoxy',
        atoms='C:4 H:8 O:2',
        thermo=(NASA([10.00, 209.19],
                     [ 3.75295042E+00,  2.37546930E-02,  1.26610110E-04,
                      -4.78364365E-07,  5.79468168E-10, -4.04760985E+04,
                       1.12739684E+01]),
                NASA([209.19, 3000.00],
                     [ 2.64185254E+00,  4.50006531E-02, -2.57361066E-05,
                       7.15266054E-09, -7.72980731E-13, -4.04296129E+04,
                       1.48960343E+01])))

species(name='ibutenol',
        atoms='C:4 H:8 O:1',
        thermo=(NASA([10.00, 135.97],
                     [ 3.95714996E+00,  5.72646980E-03,  4.63611760E-04,
                      -3.04137514E-06,  6.85019471E-09, -2.33116910E+04,
                       8.21931848E+00]),
                NASA([135.97, 3000.00],
                     [ 3.32467612E+00,  3.69033556E-02, -1.89960416E-05,
                       4.73417677E-09, -4.59705291E-13, -2.33061123E+04,
                       9.58133237E+00])))

species(name='aQOOH[O]',
        atoms='C:4 H:9 O:3',
        thermo=(NASA([10.00, 488.36],
                     [ 3.54559533E+00,  3.89536133E-02,  8.47689703E-05,
                      -2.45147486E-07,  1.76157259E-10, -2.38504112E+04,
                       1.34685910E+01]),
                NASA([488.36, 3000.00],
                     [ 3.94214913E+00,  5.71928314E-02, -3.72516212E-05,
                       1.15209013E-08, -1.35808341E-12, -2.41453721E+04,
                       9.21628964E+00])))

species(name='ipropyl',
        atoms='C:3 H:7',
        thermo=(NASA([10.00, 421.76],
                     [ 3.73943775E+00,  3.10070157E-02, -1.51196908E-04,
                       4.35367329E-07, -3.85565052E-10,  9.49213457E+03,
                       7.79448918E+00]),
                NASA([421.76, 3000.00],
                     [-4.74526725E-01,  3.20862468E-02, -1.67340747E-05,
                       4.21365136E-09, -4.13155573E-13,  1.01934458E+04,
                       2.85865912E+01])))

species(name='aRO2',
        atoms='C:4 H:9 O:3',
        thermo=(NASA([10.00, 670.36],
                     [ 3.45405325E+00,  4.74751311E-02,  9.77507759E-06,
                      -6.31019603E-08,  3.75500067E-11, -3.43370939E+04,
                       1.39284976E+01]),
                NASA([670.36, 3000.00],
                     [ 5.04137652E+00,  5.19952978E-02, -3.16472789E-05,
                       9.22798587E-09, -1.03598915E-12, -3.48642865E+04,
                       4.56056770E+00])))

species(name='O2',
        atoms='O:2',
        thermo=(NASA([10.00, 605.96],
                     [ 3.50743498E+00, -4.43860349E-04,  1.45938058E-06,
                       1.61509333E-09, -2.32050052E-12, -9.24756224E+02,
                       4.72183634E+00]),
                NASA([605.96, 3000.00],
                     [ 2.87462882E+00,  2.17840991E-03, -1.18262921E-06,
                       2.86910493E-10, -2.53297146E-14, -8.19517838E+02,
                       7.69331810E+00])))

species(name='formic_acid',
        atoms='C:1 H:2 O:2',
        thermo=(NASA([10.00, 741.38],
                     [ 4.06855785E+00, -4.74562133E-03,  4.71797900E-05,
                      -6.07490052E-08,  2.51286794E-11, -4.66880837E+04,
                       6.53681035E+00]),
                NASA([741.38, 3000.00],
                     [ 1.13645847E+00,  1.74953124E-02, -1.08112403E-05,
                       3.08075326E-09, -3.34892658E-13, -4.64297918E+04,
                       1.86149484E+01])))

species(name='propene',
        atoms='C:3 H:6',
        thermo=(NASA([10.00, 519.53],
                     [ 3.98723879E+00,  4.72040503E-04,  6.51776229E-05,
                      -9.89891002E-08,  4.91141123E-11,  1.43664062E+03,
                       6.98071210E+00]),
                NASA([519.53, 3000.00],
                     [ 3.79893331E-01,  2.82457690E-02, -1.50108430E-05,
                       3.90894069E-09, -4.00521928E-13,  1.81146796E+03,
                       2.20218922E+01])))

species(name='aQOOHg',
        atoms='C:4 H:9 O:3',
        thermo=(NASA([10.00, 455.48],
                     [ 3.62522127E+00,  2.83222320E-02,  2.08527447E-04,
                      -5.67427418E-07,  4.35169138E-10, -2.63957967E+04,
                       1.26617758E+01]),
                NASA([455.48, 3000.00],
                     [ 5.13914202E+00,  5.96270859E-02, -4.14435328E-05,
                       1.34202375E-08, -1.63474553E-12, -2.69963531E+04,
                       1.46991116E+00])))

species(name='ibut_peroxyacid',
        atoms='C:4 H:8 O:3',
        thermo=(NASA([10.00, 1386.21],
                     [ 3.50995385E+00,  4.78670384E-02, -2.40781384E-05,
                       3.71046938E-09,  3.85442115E-13, -4.69131848E+04,
                       1.22017268E+01]),
                NASA([1386.21, 3000.00],
                     [ 1.24543146E+01,  3.02396862E-02, -1.38577031E-05,
                       3.05328904E-09, -2.63982457E-13, -5.01790681E+04,
                      -3.67061828E+01])))

species(name='HO2',
        atoms='H:1 O:2',
        thermo=(NASA([10.00, 891.11],
                     [ 4.02887004E+00, -1.75769289E-03,  1.08726004E-05,
                      -1.13812972E-08,  3.90113097E-12,  4.95165001E+02,
                       4.69302008E+00]),
                NASA([891.11, 3000.00],
                     [ 3.06571044E+00,  4.28505005E-03, -2.19325920E-06,
                       5.58882699E-10, -5.61246669E-14,  5.98557610E+02,
                       8.84564156E+00])))

species(name='CH3',
        atoms='C:1 H:3',
        thermo=(NASA([10.00, 616.77],
                     [ 3.98929952E+00,  5.45150461E-04,  9.01320092E-06,
                      -1.08320497E-08,  4.38985879E-12,  1.65859883E+04,
                       2.22446886E-01]),
                NASA([616.77, 3000.00],
                     [ 3.35928237E+00,  4.63117126E-03, -9.24365433E-07,
                      -9.02514624E-11,  3.56905106E-14,  1.66637014E+04,
                       2.95743732E+00])))

#-------------------------------------------------------------------------------
# Reaction data
#-------------------------------------------------------------------------------

# Reaction 1
chebyshev_reaction('aQOOH[O] (+ M) <=> aQOOHb (+ M)',
                   Tmin=180.0, Tmax=1500.0,
                   Pmin=(0.01, 'atm'), Pmax=(98.692, 'atm'),
                   coeffs=[[ 2.44000e+00,  1.12700e+00, -1.86900e-01, -2.48600e-02,  7.49400e-03,  3.56600e-03,  3.70700e-04, -3.35400e-04],
                           [ 2.43800e+00,  1.47400e+00, -2.09000e-01, -1.23500e-02,  4.71600e-03,  2.30600e-03,  7.93100e-04, -5.67100e-05],
                           [ 6.34000e-01,  3.89800e-01, -9.99900e-03,  2.91300e-02,  1.00400e-03, -3.89000e-03, -7.27400e-04,  5.69900e-04],
                           [-3.34000e-02,  2.58900e-02,  4.29600e-02,  5.79700e-03,  7.34700e-03, -1.27700e-03, -1.96300e-03, -2.49200e-05],
                           [-1.85700e-01,  7.91300e-02,  2.09900e-02, -2.49800e-02,  5.16800e-03,  2.20300e-03, -8.50700e-04, -3.74600e-04],
                           [-1.01500e-01,  9.76900e-02,  4.84900e-03, -1.77800e-02, -3.04200e-03,  1.00700e-03,  3.83900e-04, -3.10600e-05],
                           [-1.03100e-02,  2.75500e-02,  1.00800e-02,  1.03700e-03, -6.26200e-03, -1.92400e-04,  3.84100e-04,  2.06200e-05],
                           [ 7.78000e-03, -2.09200e-02,  1.36800e-02,  4.44900e-03, -3.18900e-03,  5.81600e-04,  1.39800e-04, -1.85000e-04],
                           [-6.47400e-03, -1.42000e-02,  4.75600e-03, -8.88400e-04,  5.14100e-04,  7.63300e-04,  2.36500e-04, -1.02700e-04],
                           [-9.79200e-03,  3.12900e-03, -3.76700e-03, -1.93600e-03,  1.23700e-03, -1.79600e-04,  3.25100e-04,  8.30900e-05]])

# Reaction 2
chebyshev_reaction('aQOOHg (+ M) <=> aQOOHb (+ M)',
                   Tmin=180.0, Tmax=1500.0,
                   Pmin=(0.01, 'atm'), Pmax=(98.692, 'atm'),
                   coeffs=[[-2.65200e+00, -1.95900e-01, -4.10200e-01,  4.89400e-04,  1.32900e-02,  1.06000e-03, -5.48000e-04, -1.59500e-06],
                           [ 6.85100e+00,  1.57300e+00, -1.88500e-01, -3.30200e-02, -4.76700e-04,  4.21800e-03,  8.05100e-04, -3.17500e-04],
                           [ 4.35800e-01,  5.29200e-01, -7.46300e-02,  1.90200e-02,  8.40100e-03, -6.16800e-03, -8.64100e-04,  8.10200e-04],
                           [-4.24600e-01,  3.06200e-01, -2.17600e-02, -1.88800e-02,  1.71400e-02,  9.39000e-04, -3.16300e-03, -3.27700e-04],
                           [-1.63000e-01,  1.52000e-01,  4.53600e-02, -2.54400e-02, -1.74700e-04,  4.51100e-03, -2.49100e-04, -7.31600e-04],
                           [-7.33800e-02,  5.29600e-02,  4.74500e-02, -7.46600e-03, -6.96900e-03,  1.26100e-03,  9.12400e-04, -2.93400e-05],
                           [-3.19200e-02,  1.03400e-02,  2.38400e-02,  1.62000e-03, -4.43700e-03, -2.72100e-04,  5.07600e-04,  6.97300e-05],
                           [-2.28800e-02,  1.75000e-03,  6.35500e-03,  1.64700e-03, -1.58800e-03, -1.91300e-04,  3.25000e-04, -2.44600e-05],
                           [-3.66000e-03, -4.45500e-03,  3.20300e-04,  1.10200e-03, -4.30700e-04, -2.86400e-04,  2.26800e-04,  7.80400e-05],
                           [-5.81000e-03, -3.26800e-03, -1.46800e-03,  5.19700e-04,  1.77200e-04, -2.31100e-04, -3.12500e-05,  1.02600e-04]])

# Reaction 3
chebyshev_reaction('aRO2 (+ M) <=> aQOOHb (+ M)',
                   Tmin=180.0, Tmax=1500.0,
                   Pmin=(0.01, 'atm'), Pmax=(98.692, 'atm'),
                   coeffs=[[-5.45100e+00,  9.60700e-01, -2.12500e-01, -6.52100e-03,  5.49300e-03,  2.00300e-03,  6.81200e-05, -2.63600e-04],
                           [ 9.91300e+00,  1.26500e+00, -2.29700e-01, -2.33300e-02,  7.24200e-03,  2.73300e-03,  1.07000e-04, -2.37800e-04],
                           [ 1.24200e+00,  3.07500e-01, -5.11600e-03, -4.68900e-03, -1.98300e-03, -7.50600e-04,  1.99100e-04,  2.41400e-04],
                           [-1.39200e-01,  1.98700e-02,  1.41400e-02,  1.50200e-02,  1.77100e-04, -3.68600e-03, -3.56300e-04,  5.13200e-04],
                           [-3.00000e-01,  1.11600e-01, -1.18400e-02,  1.48900e-03,  5.40100e-03, -1.67700e-03, -1.03900e-03,  2.39400e-04],
                           [-1.65100e-01,  1.17900e-01,  6.91600e-03, -1.19900e-02,  2.30300e-03,  1.21900e-03, -5.49100e-04, -1.36100e-04],
                           [-5.75000e-02,  3.15400e-02,  2.23600e-02, -6.79400e-03, -1.89300e-03,  1.11800e-03,  1.15600e-04, -1.14700e-04],
                           [-1.87700e-02, -1.62500e-02,  1.35300e-02,  8.37300e-04, -1.53700e-03,  1.49900e-04,  7.92800e-05, -2.06700e-05],
                           [-1.11600e-02, -1.10100e-02,  9.46000e-04,  1.92000e-03, -1.28700e-04,  1.26600e-04, -4.47000e-05, -8.55100e-05],
                           [-4.93300e-03, -5.06400e-04, -2.56400e-03,  3.77400e-04,  1.80200e-04,  2.47800e-04,  5.63700e-05, -1.03500e-04]])

# Reaction 4
chebyshev_reaction('aadduct (+ M) <=> aQOOHb (+ M)',
                   Tmin=180.0, Tmax=1500.0,
                   Pmin=(0.01, 'atm'), Pmax=(98.692, 'atm'),
                   coeffs=[[-5.67800e+00,  5.56100e-01, -3.07800e-01, -3.75300e-02,  1.93400e-02,  8.67100e-03, -1.18600e-03, -1.56500e-03],
                           [ 2.92100e+00,  1.85700e+00, -4.46300e-02,  2.59300e-03, -1.23400e-02, -4.75300e-03,  2.04900e-03,  1.43900e-03],
                           [ 1.68000e+00,  4.76100e-01, -9.79700e-02,  1.13000e-02,  1.95500e-03, -3.56900e-03, -7.40800e-04,  4.92100e-04],
                           [ 2.34000e-01, -1.56000e-01, -2.50300e-02,  4.40300e-03,  6.15800e-03, -1.21800e-04, -8.48500e-04, -2.57600e-04],
                           [-3.62800e-01, -6.01300e-03,  5.86100e-02, -5.88300e-03,  4.80800e-03,  4.22200e-04, -1.02700e-03, -6.81300e-05],
                           [-1.87300e-01,  2.13200e-01,  4.16700e-02, -1.47500e-02,  3.56500e-04, -7.31100e-05, -7.35400e-04,  1.89800e-04],
                           [ 3.46000e-02,  1.07300e-01, -1.60300e-02, -6.74000e-03, -1.57600e-03,  6.53400e-04,  1.80300e-04, -1.18500e-05],
                           [ 4.39900e-02, -7.40200e-02, -1.19900e-02,  8.91700e-03, -1.34100e-03,  1.09300e-03,  4.35100e-04, -4.07900e-04],
                           [-2.09100e-02, -7.15800e-02,  2.24500e-02,  4.74700e-03, -2.03900e-03,  6.73300e-04,  3.38400e-04, -1.76700e-04],
                           [-3.23400e-02,  2.75400e-02,  2.04100e-02, -7.75000e-03, -1.09900e-03, -3.72700e-04, -1.20600e-04,  1.91900e-04]])

# Reaction 5
chebyshev_reaction('O2 + aR (+ M) <=> aQOOHb (+ M)',
                   Tmin=180.0, Tmax=1500.0,
                   Pmin=(0.01, 'atm'), Pmax=(98.692, 'atm'),
                   coeffs=[[ 9.92900e+00,  5.08300e-02, -3.53400e-01, -2.53800e-02, -4.63600e-03,  6.96100e-03,  1.94000e-03, -6.95500e-04],
                           [ 2.82400e-01,  7.43900e-01, -1.06500e-02,  8.83000e-04,  7.18200e-03, -9.22700e-03, -1.11800e-03,  1.51900e-03],
                           [ 3.66900e-02,  2.94700e-01, -2.86100e-02, -1.01300e-02,  1.68500e-02,  2.23800e-03, -2.80900e-03, -7.98000e-04],
                           [-1.15900e-01,  1.26700e-01,  1.90200e-02, -1.87900e-02,  3.88600e-03,  4.96400e-03, -7.93700e-04, -6.55400e-04],
                           [-6.81500e-02,  6.33900e-02,  3.86400e-02, -8.94200e-03, -4.52100e-03,  2.57300e-03,  1.91900e-04, -3.90000e-04],
                           [-4.39500e-02,  3.32100e-02,  2.73600e-02, -3.25300e-04, -5.12900e-03,  5.35800e-04,  7.09400e-04, -2.65400e-04],
                           [-1.45600e-02,  1.32400e-02,  4.45100e-03,  3.67500e-03, -2.51000e-03, -2.95200e-04,  8.14400e-04, -1.33000e-04],
                           [-1.59700e-02,  1.31000e-03,  1.79800e-03,  3.18300e-04, -9.80700e-04, -4.18300e-04,  5.72300e-04,  1.80300e-04],
                           [ 1.30000e-03, -6.61900e-03, -4.71900e-04, -3.23100e-04,  8.40800e-05, -2.51300e-04,  1.14200e-04,  1.78400e-04],
                           [-3.66400e-03, -3.74200e-03, -1.88400e-03,  1.60800e-04,  1.63600e-04, -1.25600e-04, -4.10700e-05,  8.03200e-05]])
#  aQOOHb(+M) <=> aQOOH[O](+M)                         1.000e+00 0.000     0.000
#      TCHEB/ 180.000   1500.000 /
#      PCHEB/ 0.010     98.692   /
#      CHEB/ 10 8/
#      CHEB/ -8.371e+00   1.127e+00    -1.869e-01   -2.486e-02   7.494e-03   /
#      CHEB/ 3.566e-03    3.707e-04    -3.354e-04   9.580e+00    1.474e+00   /
#      CHEB/ -2.090e-01   -1.235e-02   4.716e-03    2.306e-03    7.931e-04   /
#      CHEB/ -5.671e-05   7.119e-01    3.898e-01    -9.999e-03   2.913e-02   /
#      CHEB/ 1.004e-03    -3.890e-03   -7.274e-04   5.699e-04    1.260e-02   /
#      CHEB/ 2.589e-02    4.296e-02    5.797e-03    7.347e-03    -1.277e-03  /
#      CHEB/ -1.963e-03   -2.492e-05   -1.703e-01   7.913e-02    2.099e-02   /
#      CHEB/ -2.498e-02   5.168e-03    2.203e-03    -8.507e-04   -3.746e-04  /
#      CHEB/ -9.670e-02   9.769e-02    4.849e-03    -1.778e-02   -3.042e-03  /
#      CHEB/ 1.007e-03    3.839e-04    -3.106e-05   -8.502e-03   2.755e-02   /
#      CHEB/ 1.008e-02    1.037e-03    -6.262e-03   -1.924e-04   3.841e-04   /
#      CHEB/ 2.062e-05    8.496e-03    -2.092e-02   1.368e-02    4.449e-03   /
#      CHEB/ -3.189e-03   5.816e-04    1.398e-04    -1.850e-04   -6.280e-03  /
#      CHEB/ -1.420e-02   4.756e-03    -8.884e-04   5.141e-04    7.633e-04   /
#      CHEB/ 2.365e-04    -1.027e-04   -9.785e-03   3.129e-03    -3.767e-03  /
#      CHEB/ -1.936e-03   1.237e-03    -1.796e-04   3.251e-04    8.309e-05   /

# Reaction 6
chebyshev_reaction('aQOOHg (+ M) <=> aQOOH[O] (+ M)',
                   Tmin=180.0, Tmax=1500.0,
                   Pmin=(0.01, 'atm'), Pmax=(98.692, 'atm'),
                   coeffs=[[-5.24900e-01,  1.32600e+00, -1.52200e-01, -1.48100e-02,  7.64200e-03,  1.10600e-03, -7.80400e-04, -3.45200e-04],
                           [ 4.78200e+00,  1.57300e+00, -1.46300e-01, -1.52300e-04,  2.68100e-03,  7.99700e-04, -5.65900e-05, -3.56500e-04],
                           [ 1.67100e-01,  3.02500e-01, -2.13500e-02,  1.50600e-02,  1.28100e-03, -5.48000e-04,  1.04500e-04,  2.60500e-04],
                           [-1.84300e-01,  1.48900e-02,  1.57000e-03, -1.75500e-02,  6.15800e-03,  1.50400e-03, -4.96900e-04,  1.85800e-04],
                           [-1.73800e-01,  9.57600e-02,  1.00500e-02, -2.82500e-02,  1.43800e-03,  1.73200e-03,  1.16600e-05, -1.84200e-05],
                           [-8.14900e-02,  7.89800e-02,  1.59400e-02, -1.00600e-02, -4.76500e-03,  6.42100e-04,  4.92000e-04, -8.81200e-05],
                           [-1.42500e-02,  7.63800e-03,  1.71800e-02,  2.28600e-03, -5.57700e-03,  3.80100e-04,  4.23300e-04, -8.45400e-05],
                           [ 2.27400e-03, -1.70400e-02,  1.22300e-02,  2.55500e-03, -2.55300e-03,  7.01200e-05,  1.97700e-04, -9.20300e-06],
                           [-3.77900e-03, -4.42900e-03,  3.17600e-03,  1.22700e-03,  1.18500e-04, -5.15100e-04,  1.08500e-04,  5.14900e-05],
                           [-5.85600e-03,  3.32700e-03, -1.43500e-03,  1.19000e-03,  7.10700e-04, -5.87400e-04,  8.16600e-05,  3.50600e-05]])

# Reaction 7
chebyshev_reaction('aRO2 (+ M) <=> aQOOH[O] (+ M)',
                   Tmin=180.0, Tmax=1500.0,
                   Pmin=(0.01, 'atm'), Pmax=(98.692, 'atm'),
                   coeffs=[[-6.26900e+00,  2.33200e+00, -4.42500e-01, -1.40000e-02,  2.27600e-02,  8.76200e-04, -2.58400e-03,  7.34700e-05],
                           [ 1.19700e+01,  1.23200e+00,  1.53100e-01, -6.79800e-02, -1.90200e-02,  7.58700e-03,  2.92300e-03, -1.26800e-03],
                           [-6.06700e-01,  1.30200e-01,  1.05600e-01,  2.16000e-02, -7.92200e-03, -3.99100e-03,  9.66900e-04,  7.26300e-04],
                           [-2.18900e-01, -2.91700e-02,  1.73100e-02,  1.33800e-02,  2.18600e-03, -7.27100e-04, -3.56100e-04,  1.29800e-04],
                           [-1.21200e-01,  1.96400e-02,  2.66700e-03, -3.32200e-03, -8.29800e-04,  9.39400e-04,  4.82900e-04, -4.50000e-05],
                           [-8.54200e-02,  3.89300e-02,  7.99500e-03, -4.23000e-03, -2.76800e-03, -8.58400e-05,  4.76000e-04,  1.45800e-04],
                           [-4.94200e-02,  2.03800e-02,  8.44100e-03,  6.12100e-04, -1.78200e-03, -9.45000e-04,  1.00700e-04,  1.97600e-04],
                           [-2.84600e-02,  1.00400e-02,  3.71700e-03,  1.70500e-03, -1.71600e-04, -4.96200e-04, -2.14300e-04,  5.78000e-05],
                           [-8.38000e-03, -5.46800e-03,  2.78100e-03,  1.68200e-03,  3.21500e-04, -2.91000e-04, -1.17000e-04,  1.20100e-05],
                           [-4.77400e-03, -2.52000e-03, -7.82500e-04,  1.28300e-03,  4.25000e-04, -4.48500e-05, -8.87200e-05, -1.49000e-05]])

# Reaction 8
chebyshev_reaction('aadduct (+ M) <=> aQOOH[O] (+ M)',
                   Tmin=180.0, Tmax=1500.0,
                   Pmin=(0.01, 'atm'), Pmax=(98.692, 'atm'),
                   coeffs=[[-7.80400e+00,  2.42100e+00, -4.30900e-01, -1.85200e-02,  2.11700e-02,  1.30000e-03, -2.29400e-03,  2.46000e-05],
                           [ 6.66000e+00,  1.26300e+00,  1.77900e-01, -6.52100e-02, -2.15600e-02,  6.98700e-03,  3.23200e-03, -1.13500e-03],
                           [-4.87300e-01,  9.92100e-02,  1.07300e-01,  2.70500e-02, -6.80900e-03, -4.51700e-03,  6.95600e-04,  7.76400e-04],
                           [-1.18700e-01, -4.99200e-02,  1.25400e-02,  1.56300e-02,  3.34800e-03, -9.98900e-04, -5.72700e-04,  1.59900e-04],
                           [-7.28000e-03,  1.67700e-02,  1.93800e-03, -1.93200e-03, -5.69100e-04,  4.65400e-04,  3.12600e-04,  2.61400e-05],
                           [ 1.58800e-03,  4.20600e-02,  1.01200e-02, -2.74400e-03, -2.62900e-03, -4.74200e-04,  2.94100e-04,  1.71200e-04],
                           [-1.99800e-02,  2.23200e-02,  1.02800e-02,  1.59800e-03, -1.49600e-03, -1.01400e-03, -1.65000e-05,  1.68000e-04],
                           [-1.75900e-02,  9.96800e-03,  4.13400e-03,  1.89500e-03,  1.25300e-04, -3.48200e-04, -2.36300e-04,  1.12500e-05],
                           [-1.41900e-02, -5.97000e-03,  1.95500e-03,  1.42900e-03,  5.21200e-04, -9.84900e-05, -9.71300e-05, -2.32900e-05],
                           [-1.15800e-02, -3.37600e-03, -1.66200e-03,  8.55000e-04,  5.07300e-04,  9.83600e-05, -5.87000e-05, -3.21300e-05]])

# Reaction 9
chebyshev_reaction('O2 + aR (+ M) <=> aQOOH[O] (+ M)',
                   Tmin=180.0, Tmax=1500.0,
                   Pmin=(0.01, 'atm'), Pmax=(98.692, 'atm'),
                   coeffs=[[ 1.02600e+01,  1.53200e+00, -2.56300e-01, -8.65100e-02, -1.05700e-02,  4.91300e-03,  2.23400e-03, -1.71800e-04],
                           [-4.21000e-01,  3.33500e-01,  1.66600e-01,  4.28200e-02, -2.92800e-03, -5.71400e-03, -7.05100e-04,  8.08000e-04],
                           [-9.27800e-02,  5.06300e-03,  1.59000e-02,  1.58700e-02,  7.77100e-03,  9.90200e-04, -1.07100e-03, -5.64400e-04],
                           [-1.05700e-01,  1.14200e-02,  6.93000e-03,  3.40100e-03,  1.49300e-03,  4.92800e-04, -2.77200e-05, -1.68800e-04],
                           [-6.00400e-02,  3.83400e-02,  1.86100e-02,  3.91800e-03, -1.30200e-03, -1.17900e-03, -1.73800e-04,  1.73000e-04],
                           [-3.26300e-02,  3.06600e-02,  1.49900e-02,  3.27900e-03, -9.73900e-04, -9.71900e-04, -1.91800e-04,  1.22600e-04],
                           [-1.15600e-02,  6.79600e-03,  4.44400e-03,  1.99500e-03,  4.20900e-04, -1.50500e-04, -1.55200e-04, -3.63800e-05],
                           [-1.17300e-02,  1.96500e-04, -4.29000e-04, -4.02200e-04, -1.01900e-06,  2.10100e-04,  1.43000e-04,  1.57500e-05],
                           [-1.85300e-03, -5.62000e-03, -2.50900e-03, -3.32900e-04,  3.20400e-04,  2.13000e-04,  3.69100e-05, -1.99300e-05],
                           [-2.01000e-03, -5.03500e-03, -2.15100e-03, -1.95800e-04,  3.16800e-04,  1.57900e-04, -8.65600e-06, -3.57500e-05]])
#  aQOOHb(+M) <=> aQOOHg(+M)                           1.000e+00 0.000     0.000
#      TCHEB/ 180.000   1500.000 /
#      PCHEB/ 0.010     98.692   /
#      CHEB/ 10 8/
#      CHEB/ -1.022e+01   -1.959e-01   -4.102e-01   4.894e-04    1.329e-02   /
#      CHEB/ 1.060e-03    -5.480e-04   -1.595e-06   1.160e+01    1.573e+00   /
#      CHEB/ -1.885e-01   -3.302e-02   -4.767e-04   4.218e-03    8.051e-04   /
#      CHEB/ -3.175e-04   6.590e-01    5.292e-01    -7.463e-02   1.902e-02   /
#      CHEB/ 8.401e-03    -6.168e-03   -8.641e-04   8.102e-04    -3.305e-01  /
#      CHEB/ 3.062e-01    -2.176e-02   -1.888e-02   1.714e-02    9.390e-04   /
#      CHEB/ -3.163e-03   -3.277e-04   -1.348e-01   1.520e-01    4.536e-02   /
#      CHEB/ -2.544e-02   -1.747e-04   4.511e-03    -2.491e-04   -7.316e-04  /
#      CHEB/ -6.551e-02   5.296e-02    4.745e-02    -7.466e-03   -6.969e-03  /
#      CHEB/ 1.261e-03    9.124e-04    -2.934e-05   -2.941e-02   1.034e-02   /
#      CHEB/ 2.384e-02    1.620e-03    -4.437e-03   -2.721e-04   5.076e-04   /
#      CHEB/ 6.973e-05    -2.215e-02   1.750e-03    6.355e-03    1.647e-03   /
#      CHEB/ -1.588e-03   -1.913e-04   3.250e-04    -2.446e-05   -3.639e-03  /
#      CHEB/ -4.455e-03   3.203e-04    1.102e-03    -4.307e-04   -2.864e-04  /
#      CHEB/ 2.268e-04    7.804e-05    -5.952e-03   -3.268e-03   -1.468e-03  /
#      CHEB/ 5.197e-04    1.772e-04    -2.311e-04   -3.125e-05   1.026e-04   /
#  aQOOH[O](+M) <=> aQOOHg(+M)                         1.000e+00 0.000     0.000
#      TCHEB/ 180.000   1500.000 /
#      PCHEB/ 0.010     98.692   /
#      CHEB/ 10 8/
#      CHEB/ 2.718e+00    1.326e+00    -1.522e-01   -1.481e-02   7.642e-03   /
#      CHEB/ 1.106e-03    -7.804e-04   -3.452e-04   2.384e+00    1.573e+00   /
#      CHEB/ -1.463e-01   -1.523e-04   2.681e-03    7.997e-04    -5.659e-05  /
#      CHEB/ -3.565e-04   3.123e-01    3.025e-01    -2.135e-02   1.506e-02   /
#      CHEB/ 1.281e-03    -5.480e-04   1.045e-04    2.605e-04    -1.362e-01  /
#      CHEB/ 1.489e-02    1.570e-03    -1.755e-02   6.158e-03    1.504e-03   /
#      CHEB/ -4.969e-04   1.858e-04    -1.610e-01   9.576e-02    1.005e-02   /
#      CHEB/ -2.825e-02   1.438e-03    1.732e-03    1.166e-05    -1.842e-05  /