units(length='cm', time='s', quantity='mol', act_energy='kcal/mol')

ideal_gas(name='gas',
          elements="H D T C Ci O Oi N Ne Ar He Si S F Cl Br I X",
          species="""aOOHbalkene      OH               ibutanal
                     aR               performic_acid   disub_c4ether
                     aQOOHb           H                aadduct
                     trisub_epoxy     ibutenol         aQOOH[O]
                     ipropyl          aRO2             O2
                     formic_acid      propene          aQOOHg
                     ibut_peroxyacid  HO2              CH3""",
          reactions='all',
          initial_state=state(temperature=300.0, pressure=OneAtm))

#-------------------------------------------------------------------------------
# Element data
#-------------------------------------------------------------------------------

element(symbol='Ci', atomic_mass=13.003)
element(symbol='D', atomic_mass=2.014)
element(symbol='Oi', atomic_mass=18.0)
element(symbol='T', atomic_mass=3.016)
element(symbol='X', atomic_mass=195.083)
#-------------------------------------------------------------------------------
# Species data
#-------------------------------------------------------------------------------

species(name='aOOHbalkene',
        atoms='C:3 H:6 O:3',
        thermo=(NASA([10.00, 497.41],
                     [ 3.76691735E+00,  1.51417956E-02,  1.85499431E-04,
                      -4.61303214E-07,  3.27678941E-10, -2.98240625E+04,
                       1.09903968E+01]),
                NASA([497.41, 3000.00],
                     [ 6.20882781E+00,  4.08866173E-02, -2.89934946E-05,
                       9.60428979E-09, -1.19355432E-12, -3.06283919E+04,
                      -4.72842811E+00])))

species(name='OH',
        atoms='H:1 O:1',
        thermo=(NASA([10.00, 984.14],
                     [ 3.49686242E+00,  1.83973160E-04, -9.97634499E-07,
                       1.56942783E-09, -6.10128175E-13,  3.41673934E+03,
                       1.48093120E+00]),
                NASA([984.14, 3000.00],
                     [ 3.45221464E+00, -2.95124034E-04,  7.39418622E-07,
                      -2.89309866E-10,  3.53041498E-14,  3.45751599E+03,
                       1.85813897E+00])))

species(name='ibutanal',
        atoms='C:4 H:8 O:1',
        thermo=(NASA([10.00, 683.88],
                     [ 3.57157346E+00,  3.36936906E-02, -1.78475021E-05,
                       1.31946716E-08, -7.58008388E-12, -2.86667883E+04,
                       1.05595084E+01]),
                NASA([683.88, 3000.00],
                     [ 1.29043622E+00,  4.14804229E-02, -2.27411206E-05,
                       6.08619500E-09, -6.38995128E-13, -2.82248692E+04,
                       2.16477430E+01])))

species(name='aR',
        atoms='C:4 H:9 O:1',
        thermo=(NASA([10.00, 455.22],
                     [ 3.59625500E+00,  3.38947981E-02,  7.37257079E-06,
                      -3.99275335E-08,  2.49019944E-11, -1.27231947E+04,
                       1.18269265E+01]),
                NASA([455.22, 3000.00],
                     [ 2.49586309E+00,  4.35639890E-02, -2.44887770E-05,
                       6.73363769E-09, -7.23862433E-13, -1.26230116E+04,
                       1.62696907E+01])))

species(name='performic_acid',
        atoms='C:1 H:2 O:3',
        thermo=(NASA([10.00, 590.95],
                     [ 3.92633851E+00,  4.24517168E-03,  6.71106764E-05,
                      -1.36545385E-07,  8.03337864E-11, -3.63028176E+04,
                       8.06485813E+00]),
                NASA([590.95, 3000.00],
                     [ 4.39992934E+00,  1.85411415E-02, -1.36005501E-05,
                       4.62292431E-09, -5.88463603E-13, -3.66643888E+04,
                       3.44353230E+00])))

species(name='disub_c4ether',
        atoms='C:4 H:8 O:2',
        thermo=(NASA([10.00, 413.50],
                     [ 3.78241323E+00,  1.89501763E-02,  8.65302396E-05,
                      -1.80580575E-07,  1.13656264E-10, -3.88675648E+04,
                       1.09982450E+01]),
                NASA([413.50, 3000.00],
                     [ 4.29420885E-01,  5.13851903E-02, -3.11292293E-05,
                       9.11498284E-09, -1.03192718E-12, -3.85902705E+04,
                       2.42134976E+01])))

species(name='aQOOHb',
        atoms='C:4 H:9 O:3',
        thermo=(NASA([10.00, 412.78],
                     [ 3.15498836E+00,  8.55068303E-02, -2.35307993E-04,
                       4.71983261E-07, -3.62709267E-10, -2.67375980E+04,
                       1.52522123E+01]),
                NASA([412.78, 3000.00],
                     [ 4.18099845E+00,  5.26168288E-02, -3.23998410E-05,
                       9.59389339E-09, -1.09464519E-12, -2.66268031E+04,
                       1.35782328E+01])))

species(name='H',
        atoms='H:1',
        thermo=(NASA([10.00, 794.01],
                     [ 2.50000000E+00,  1.99051163E-15, -1.19089508E-17,
                       2.10805655E-20, -1.11017699E-23,  2.54725594E+04,
                      -4.61279342E-01]),
                NASA([794.01, 3000.00],
                     [ 2.50000000E+00,  1.52667235E-14, -1.58445285E-17,
                       6.63088600E-21, -9.62111674E-25,  2.54725594E+04,
                      -4.61279342E-01])))

species(name='aadduct',
        atoms='C:4 H:9 O:3',
        thermo=(NASA([10.00, 449.84],
                     [ 3.06901904E+00,  9.20724491E-02, -2.68085092E-04,
                       5.15249897E-07, -3.68046586E-10, -3.13723506E+04,
                       1.46591735E+01]),
                NASA([449.84, 3000.00],
                     [ 4.11210745E+00,  5.16955724E-02, -2.97401041E-05,
                       8.32758939E-09, -9.08861448E-13, -3.11515096E+04,
                       1.39578825E+01])))

species(name='trisub_epoxy',
        atoms='C:4 H:8 O:2',
        thermo=(NASA([10.00, 209.19],
                     [ 3.75295042E+00,  2.37546930E-02,  1.26610110E-04,
                      -4.78364365E-07,  5.79468168E-10, -4.05458331E+04,
                       1.12739684E+01]),
                NASA([209.19, 3000.00],
                     [ 2.64185254E+00,  4.50006531E-02, -2.57361066E-05,
                       7.15266054E-09, -7.72980731E-13, -4.04993475E+04,
                       1.48960343E+01])))

species(name='ibutenol',
        atoms='C:4 H:8 O:1',
        thermo=(NASA([10.00, 135.97],
                     [ 3.95714996E+00,  5.72646980E-03,  4.63611760E-04,
                      -3.04137514E-06,  6.85019471E-09, -2.26151530E+04,
                       8.21931848E+00]),
                NASA([135.97, 3000.00],
                     [ 3.32467612E+00,  3.69033556E-02, -1.89960416E-05,
                       4.73417677E-09, -4.59705291E-13, -2.26095743E+04,
                       9.58133237E+00])))

species(name='aQOOH[O]',
        atoms='C:4 H:9 O:3',
        thermo=(NASA([10.00, 488.36],
                     [ 3.54559533E+00,  3.89536133E-02,  8.47689703E-05,
                      -2.45147486E-07,  1.76157259E-10, -2.43604040E+04,
                       1.34685910E+01]),
                NASA([488.36, 3000.00],
                     [ 3.94214913E+00,  5.71928314E-02, -3.72516212E-05,
                       1.15209013E-08, -1.35808341E-12, -2.46553650E+04,
                       9.21628964E+00])))

species(name='ipropyl',
        atoms='C:3 H:7',
        thermo=(NASA([10.00, 421.76],
                     [ 3.73943775E+00,  3.10070157E-02, -1.51196908E-04,
                       4.35367329E-07, -3.85565052E-10,  9.49213457E+03,
                       7.79448918E+00]),
                NASA([421.76, 3000.00],
                     [-4.74526725E-01,  3.20862468E-02, -1.67340747E-05,
                       4.21365136E-09, -4.13155573E-13,  1.01934458E+04,
                       2.85865912E+01])))

species(name='aRO2',
        atoms='C:4 H:9 O:3',
        thermo=(NASA([10.00, 670.36],
                     [ 3.45405325E+00,  4.74751311E-02,  9.77507759E-06,
                      -6.31019603E-08,  3.75500067E-11, -3.43750464E+04,
                       1.39284976E+01]),
                NASA([670.36, 3000.00],
                     [ 5.04137652E+00,  5.19952978E-02, -3.16472789E-05,
                       9.22798587E-09, -1.03598915E-12, -3.49022390E+04,
                       4.56056770E+00])))

species(name='O2',
        atoms='O:2',
        thermo=(NASA([10.00, 605.96],
                     [ 3.50743498E+00, -4.43860349E-04,  1.45938058E-06,
                       1.61509333E-09, -2.32050052E-12, -9.24756224E+02,
                       4.72183634E+00]),
                NASA([605.96, 3000.00],
                     [ 2.87462882E+00,  2.17840991E-03, -1.18262921E-06,
                       2.86910493E-10, -2.53297146E-14, -8.19517838E+02,
                       7.69331810E+00])))

species(name='formic_acid',
        atoms='C:1 H:2 O:2',
        thermo=(NASA([10.00, 741.38],
                     [ 4.06855785E+00, -4.74562133E-03,  4.71797900E-05,
                      -6.07490052E-08,  2.51286794E-11, -4.66880837E+04,
                       6.53681035E+00]),
                NASA([741.38, 3000.00],
                     [ 1.13645847E+00,  1.74953124E-02, -1.08112403E-05,
                       3.08075326E-09, -3.34892658E-13, -4.64297918E+04,
                       1.86149484E+01])))

species(name='propene',
        atoms='C:3 H:6',
        thermo=(NASA([10.00, 519.53],
                     [ 3.98723879E+00,  4.72040503E-04,  6.51776229E-05,
                      -9.89891002E-08,  4.91141123E-11,  1.31937173E+03,
                       6.98071210E+00]),
                NASA([519.53, 3000.00],
                     [ 3.79893331E-01,  2.82457690E-02, -1.50108430E-05,
                       3.90894069E-09, -4.00521928E-13,  1.69419907E+03,
                       2.20218922E+01])))

species(name='aQOOHg',
        atoms='C:4 H:9 O:3',
        thermo=(NASA([10.00, 455.48],
                     [ 3.62522127E+00,  2.83222320E-02,  2.08527447E-04,
                      -5.67427418E-07,  4.35169138E-10, -2.80945255E+04,
                       1.26617758E+01]),
                NASA([455.48, 3000.00],
                     [ 5.13914202E+00,  5.96270859E-02, -4.14435328E-05,
                       1.34202375E-08, -1.63474553E-12, -2.86950819E+04,
                       1.46991116E+00])))

species(name='ibut_peroxyacid',
        atoms='C:4 H:8 O:3',
        thermo=(NASA([10.00, 1386.21],
                     [ 3.50995385E+00,  4.78670384E-02, -2.40781384E-05,
                       3.71046938E-09,  3.85442115E-13, -4.89617196E+04,
                       1.22017268E+01]),
                NASA([1386.21, 3000.00],
                     [ 1.24543146E+01,  3.02396862E-02, -1.38577031E-05,
                       3.05328904E-09, -2.63982457E-13, -5.22276029E+04,
                      -3.67061828E+01])))

species(name='HO2',
        atoms='H:1 O:2',
        thermo=(NASA([10.00, 891.11],
                     [ 4.02887004E+00, -1.75769289E-03,  1.08726004E-05,
                      -1.13812972E-08,  3.90113097E-12,  4.95165001E+02,
                       4.69302008E+00]),
                NASA([891.11, 3000.00],
                     [ 3.06571044E+00,  4.28505005E-03, -2.19325920E-06,
                       5.58882699E-10, -5.61246669E-14,  5.98557610E+02,
                       8.84564156E+00])))

species(name='CH3',
        atoms='C:1 H:3',
        thermo=(NASA([10.00, 616.77],
                     [ 3.98929952E+00,  5.45150461E-04,  9.01320092E-06,
                      -1.08320497E-08,  4.38985879E-12,  1.65859883E+04,
                       2.22446886E-01]),
                NASA([616.77, 3000.00],
                     [ 3.35928237E+00,  4.63117126E-03, -9.24365433E-07,
                      -9.02514624E-11,  3.56905106E-14,  1.66637014E+04,
                       2.95743732E+00])))

#-------------------------------------------------------------------------------
# Reaction data
#-------------------------------------------------------------------------------

# Reaction 1
chebyshev_reaction('aQOOH[O] (+ M) <=> aQOOHb (+ M)',
                   Tmin=180.0, Tmax=1500.0,
                   Pmin=(0.01, 'atm'), Pmax=(98.692, 'atm'),
                   coeffs=[[-2.47100e+00,  2.50300e+00, -4.02500e-01, -9.14600e-02,  1.80200e-02,  1.21700e-02, -2.29300e-04, -1.59500e-03],
                           [ 5.01800e+00,  1.44600e+00,  1.70600e-01, -5.31200e-03, -3.96200e-02, -8.48900e-03,  4.96500e-03,  2.44800e-03],
                           [ 7.05000e-01,  4.66000e-02,  2.11700e-01,  7.16500e-02,  1.24300e-03, -9.52700e-03, -4.87600e-03, -1.04500e-04],
                           [-1.23000e-01, -8.66100e-02,  3.33700e-03,  7.46300e-03,  1.32800e-02,  2.10300e-03, -1.45100e-03, -9.46200e-04],
                           [-7.43900e-02,  3.18000e-02, -3.38700e-02, -8.01000e-03, -3.67500e-03, -5.17100e-04,  1.00400e-03,  3.85400e-04],
                           [-3.01000e-02,  6.37000e-03,  2.67000e-03,  1.25300e-03, -2.00000e-03,  2.52100e-04, -2.13800e-04, -1.47800e-04],
                           [-3.02600e-02, -1.65600e-02,  2.91800e-03, -9.50300e-04,  2.81100e-03,  1.22500e-03,  1.01200e-04, -6.63100e-05],
                           [-4.81800e-03, -9.83400e-03, -2.35300e-03,  4.38500e-04,  1.03700e-03, -5.97600e-05,  1.84000e-04,  4.04800e-05],
                           [ 1.28800e-02,  1.63900e-03, -3.22000e-03,  1.25800e-03, -3.46900e-04,  2.21500e-05, -6.47800e-05, -7.61500e-05],
                           [ 1.44000e-02,  5.10100e-04, -4.40900e-04, -1.40000e-03, -7.81900e-04,  1.16800e-04,  8.12500e-05,  8.07100e-05]])

# Reaction 2
chebyshev_reaction('aQOOHg (+ M) <=> aQOOHb (+ M)',
                   Tmin=180.0, Tmax=1500.0,
                   Pmin=(0.01, 'atm'), Pmax=(98.692, 'atm'),
                   coeffs=[[-9.52800e+00,  1.23300e+00, -4.80900e-01, -8.10500e-02,  8.90000e-03,  9.64300e-03,  9.50200e-04, -1.02500e-03],
                           [ 1.04700e+01,  1.12500e+00,  1.69800e-01,  1.18100e-02, -3.62000e-02, -9.34300e-03,  3.59400e-03,  2.04500e-03],
                           [ 5.82600e-01,  2.27400e-01,  9.24000e-04,  6.16200e-02,  1.32200e-02, -8.75300e-03, -4.55400e-03,  1.41100e-04],
                           [-3.65900e-01,  2.47800e-01, -9.50300e-03,  1.82800e-03,  9.73700e-03,  2.15000e-03, -9.00600e-04, -1.01300e-03],
                           [-1.83000e-01,  1.16700e-01,  1.21700e-02, -4.86300e-03,  2.06900e-03,  2.17600e-04,  4.80300e-04,  2.11700e-04],
                           [-1.09800e-01,  4.53700e-02,  5.96400e-03, -7.49900e-03,  2.03100e-03,  6.73300e-04, -2.17500e-04,  1.18200e-04],
                           [-5.32000e-02,  1.09800e-02,  3.40600e-03, -7.25900e-03,  1.94900e-04,  1.40200e-03, -2.02300e-05, -1.38800e-04],
                           [-1.32900e-02,  3.39200e-03,  3.19000e-03, -3.56600e-03, -1.24300e-03,  7.38000e-04,  1.69900e-04, -5.97500e-05],
                           [ 1.37500e-03,  8.92900e-03,  4.38300e-03, -1.08100e-03, -1.57700e-03,  7.47000e-05,  1.62500e-04,  3.84900e-06],
                           [ 7.05100e-03,  1.04400e-02,  4.74500e-03,  3.11400e-04, -1.31900e-03, -3.17500e-04,  1.35400e-04,  4.47700e-05]])

# Reaction 3
chebyshev_reaction('aRO2 (+ M) <=> aQOOHb (+ M)',
                   Tmin=180.0, Tmax=1500.0,
                   Pmin=(0.01, 'atm'), Pmax=(98.692, 'atm'),
                   coeffs=[[-9.22700e+00,  2.21400e+00, -3.59600e-01, -3.91000e-02,  7.74100e-03,  3.12700e-03, -1.76900e-04, -1.04000e-04],
                           [ 1.10400e+01,  1.61900e+00,  5.84300e-02, -8.07900e-02, -2.03300e-02,  3.83700e-03,  2.91700e-03, -6.73600e-05],
                           [ 8.65000e-01,  4.11900e-02,  1.41500e-01,  3.58800e-02, -1.44900e-02, -7.82500e-03,  1.58400e-04,  9.43500e-04],
                           [-6.73100e-02, -1.25100e-01,  4.66000e-02,  2.88400e-02,  5.95900e-03, -3.31400e-03, -2.36200e-03, -7.60200e-05],
                           [-2.85600e-01,  2.77000e-02,  2.74300e-04,  3.81200e-03,  5.29100e-03,  9.73100e-04, -6.08200e-04, -4.31000e-04],
                           [-1.67800e-01,  4.92700e-02, -5.95900e-03, -4.63100e-04,  7.94600e-04,  8.78200e-04,  3.76100e-04, -8.87800e-05],
                           [-3.31600e-02, -4.76600e-03, -1.60300e-03,  4.76800e-04,  2.25700e-04,  4.29400e-04,  9.86200e-05, -1.44800e-05],
                           [ 7.67200e-03, -2.45300e-02, -2.99400e-04,  2.06600e-04,  5.63900e-04,  2.77400e-04, -8.54400e-05, -4.35800e-05],
                           [-5.39100e-03, -7.15600e-03, -2.02900e-04, -5.21100e-04,  1.83900e-04, -1.27100e-05,  1.76700e-05,  1.21300e-05],
                           [-1.73700e-02,  9.98000e-03,  4.29200e-04, -4.67100e-04, -5.41000e-04, -1.77900e-04,  1.15600e-04,  5.63200e-05]])

# Reaction 4
chebyshev_reaction('aadduct (+ M) <=> aQOOHb (+ M)',
                   Tmin=180.0, Tmax=1500.0,
                   Pmin=(0.01, 'atm'), Pmax=(98.692, 'atm'),
                   coeffs=[[-6.95500e+00,  1.64900e+00, -5.79100e-01, -8.03700e-02,  8.65800e-03,  6.21500e-03,  7.62200e-04, -5.98400e-05],
                           [ 8.15800e+00,  2.06200e+00,  1.56000e-01, -1.07000e-01, -3.98900e-02,  1.91600e-03,  5.05300e-03,  9.26300e-04],
                           [ 9.72000e-01, -4.27900e-04,  1.52400e-01,  4.96300e-02, -1.18100e-02, -1.02400e-02, -1.16400e-03,  1.03100e-03],
                           [ 5.50600e-02, -1.65900e-01,  4.08100e-02,  3.29000e-02,  8.11500e-03, -2.77600e-03, -2.53100e-03, -3.55800e-04],
                           [-2.07000e-01,  3.76300e-02, -4.44100e-04,  2.89100e-03,  4.98500e-03,  1.10100e-03, -4.64200e-04, -3.67400e-04],
                           [-1.59700e-01,  6.02900e-02, -5.52300e-03, -1.59300e-03,  5.84500e-04,  8.47700e-04,  3.48900e-04, -5.29500e-05],
                           [-5.85400e-02, -7.12200e-03, -1.75900e-03, -1.51400e-05,  1.91500e-04,  5.11800e-04,  1.20900e-04, -4.39500e-05],
                           [-1.14200e-02, -2.90000e-02, -3.88100e-04,  2.78500e-04,  4.74700e-04,  2.61800e-04, -5.39300e-05, -4.57600e-05],
                           [-4.68500e-03, -6.74300e-03, -5.28700e-05, -2.57400e-04,  9.53100e-05, -1.12300e-04, -2.12900e-06,  2.75200e-05],
                           [-4.91000e-03,  1.23200e-02,  5.77500e-04, -3.23400e-04, -5.46500e-04, -2.33000e-04,  8.15600e-05,  6.05800e-05]])

# Reaction 5
chebyshev_reaction('O2 + aR (+ M) <=> aQOOHb (+ M)',
                   Tmin=180.0, Tmax=1500.0,
                   Pmin=(0.01, 'atm'), Pmax=(98.692, 'atm'),
                   coeffs=[[ 8.00400e+00,  1.39800e+00, -3.35200e-01, -1.15600e-01, -1.31400e-02,  9.14800e-03,  4.85100e-03,  1.67800e-04],
                           [ 4.20000e-01,  4.17900e-01,  2.10100e-01,  5.11900e-02, -1.01000e-02, -1.31000e-02, -3.46000e-03,  1.08300e-03],
                           [ 1.48600e-01,  7.52800e-02,  5.38000e-02,  2.83900e-02,  9.02900e-03, -2.90400e-04, -2.12600e-03, -1.08700e-03],
                           [-7.32700e-02,  4.00900e-02,  2.40400e-02,  1.02800e-02,  2.97500e-03,  3.96900e-04, -1.78700e-04, -1.99800e-04],
                           [-8.07600e-02,  1.54700e-02,  8.51900e-03,  2.99400e-03,  5.62300e-04,  5.92900e-05,  7.94600e-05,  6.40500e-05],
                           [-4.87900e-02, -8.44100e-03, -4.16200e-03, -8.62400e-04,  4.11200e-04,  4.36700e-04,  1.69500e-04,  1.30100e-05],
                           [-2.16200e-02, -1.44300e-02, -7.44400e-03, -1.96800e-03,  2.73700e-04,  4.81000e-04,  1.69200e-04, -1.13500e-05],
                           [-4.79900e-03, -7.57600e-03, -4.00600e-03, -1.18300e-03,  1.41600e-05,  1.79000e-04,  6.45200e-05, -5.31600e-06],
                           [ 3.46600e-03,  1.17300e-03,  3.82200e-04, -1.29300e-04, -2.15700e-04, -1.08300e-04, -1.46300e-05,  1.45900e-05],
                           [ 5.26000e-03,  4.70400e-03,  2.25300e-03,  4.21800e-04, -2.26400e-04, -1.94600e-04, -4.39200e-05,  1.96300e-05]])
#  aQOOHb(+M) <=> aQOOH[O](+M)                         1.000e+00 0.000     0.000
#      TCHEB/ 180.000   1500.000 /
#      PCHEB/ 0.010     98.692   /
#      CHEB/ 10 8/
#      CHEB/ -7.177e+00   2.503e+00    -4.025e-01   -9.146e-02   1.802e-02   /
#      CHEB/ 1.217e-02    -2.293e-04   -1.595e-03   7.364e+00    1.446e+00   /
#      CHEB/ 1.706e-01    -5.312e-03   -3.962e-02   -8.489e-03   4.965e-03   /
#      CHEB/ 2.448e-03    7.829e-01    4.660e-02    2.117e-01    7.165e-02   /
#      CHEB/ 1.243e-03    -9.527e-03   -4.876e-03   -1.045e-04   -7.698e-02  /
#      CHEB/ -8.661e-02   3.337e-03    7.463e-03    1.328e-02    2.103e-03   /
#      CHEB/ -1.451e-03   -9.462e-04   -5.902e-02   3.180e-02    -3.387e-02  /
#      CHEB/ -8.010e-03   -3.675e-03   -5.171e-04   1.004e-03    3.854e-04   /
#      CHEB/ -2.533e-02   6.370e-03    2.670e-03    1.253e-03    -2.000e-03  /
#      CHEB/ 2.521e-04    -2.138e-04   -1.478e-04   -2.845e-02   -1.656e-02  /
#      CHEB/ 2.918e-03    -9.503e-04   2.811e-03    1.225e-03    1.012e-04   /
#      CHEB/ -6.631e-05   -4.102e-03   -9.834e-03   -2.353e-03   4.385e-04   /
#      CHEB/ 1.037e-03    -5.976e-05   1.840e-04    4.048e-05    1.308e-02   /
#      CHEB/ 1.639e-03    -3.220e-03   1.258e-03    -3.469e-04   2.215e-05   /
#      CHEB/ -6.478e-05   -7.615e-05   1.441e-02    5.101e-04    -4.409e-04  /
#      CHEB/ -1.400e-03   -7.819e-04   1.168e-04    8.125e-05    8.071e-05   /

# Reaction 6
chebyshev_reaction('aQOOHg (+ M) <=> aQOOH[O] (+ M)',
                   Tmin=180.0, Tmax=1500.0,
                   Pmin=(0.01, 'atm'), Pmax=(98.692, 'atm'),
                   coeffs=[[-5.53700e+00,  1.25600e+00, -2.05700e-01, -2.93700e-02,  1.49300e-02,  7.27500e-03, -6.72700e-04, -1.35700e-03],
                           [ 8.89000e+00,  1.31300e+00, -4.97900e-02,  1.49800e-02, -1.34700e-02, -3.07900e-03,  2.27500e-03,  8.43100e-04],
                           [ 3.20600e-01,  1.91700e-01,  8.64500e-02,  3.71700e-02, -6.09100e-03, -6.96700e-03, -1.60900e-03,  6.52900e-04],
                           [-3.59000e-01,  1.09800e-01, -6.06700e-02, -1.16100e-02,  1.10000e-02,  2.26500e-03, -3.83900e-04, -3.29700e-04],
                           [-1.59100e-01,  1.33100e-01, -5.25200e-02, -1.36700e-02,  4.64000e-04,  1.01400e-03,  1.23400e-03,  3.21000e-04],
                           [-6.20400e-02,  5.58700e-02,  1.43800e-02, -5.34200e-03, -6.44500e-04,  2.73100e-04, -5.65200e-04, -1.72400e-04],
                           [-5.28000e-02,  2.78800e-02,  1.70100e-02, -6.06400e-03,  1.85600e-03,  5.26500e-04, -5.04000e-04, -2.22600e-04],
                           [-2.34100e-02,  1.63100e-02,  2.39700e-03, -2.16500e-03, -5.15600e-04,  1.69000e-04,  1.72000e-04, -2.41900e-05],
                           [ 6.24300e-03, -3.26500e-03,  1.55300e-03, -6.99100e-04, -1.52500e-03,  5.41300e-04,  1.84000e-04, -1.14800e-05],
                           [ 6.79500e-03, -3.31300e-03,  1.72500e-03, -1.73600e-03, -8.10700e-04,  3.62100e-04,  2.69300e-04,  7.43800e-05]])

# Reaction 7
chebyshev_reaction('aRO2 (+ M) <=> aQOOH[O] (+ M)',
                   Tmin=180.0, Tmax=1500.0,
                   Pmin=(0.01, 'atm'), Pmax=(98.692, 'atm'),
                   coeffs=[[-6.89000e+00,  2.46000e+00, -4.21500e-01, -4.01300e-02,  1.86400e-02,  6.67800e-03, -1.75600e-03, -1.24800e-03],
                           [ 1.23900e+01,  1.09300e+00,  1.66700e-01, -3.33300e-02, -2.15600e-02, -1.17300e-03,  3.16000e-03,  7.26800e-04],
                           [-8.43600e-01,  2.78300e-01,  1.09800e-01,  1.68100e-02, -5.49700e-03, -3.57600e-03, -4.06800e-04,  4.43800e-04],
                           [-4.19300e-01,  4.80700e-02,  4.63800e-02,  1.13900e-02, -6.91400e-04, -3.41300e-04,  1.13200e-04, -1.12100e-04],
                           [-1.64400e-01, -2.63700e-02,  9.78200e-03,  5.67100e-03,  5.86800e-04,  1.15000e-04,  2.52200e-04,  2.87600e-05],
                           [-5.05400e-02, -2.95900e-02, -6.88000e-03,  2.56700e-03,  1.66400e-03, -4.72000e-05, -1.73000e-04,  4.17900e-05],
                           [-1.77200e-02, -1.36900e-02, -8.01300e-03,  1.21000e-03,  1.44500e-03, -9.43300e-05, -3.23900e-04, -7.53500e-06],
                           [-1.12900e-02, -5.10900e-03, -2.57300e-03,  3.35300e-04,  7.23200e-04, -7.41300e-05, -1.76000e-04, -3.17300e-05],
                           [-1.06400e-02, -3.83800e-04,  3.30700e-04,  2.21400e-04, -6.24600e-05,  6.85800e-05, -1.27300e-05, -2.56200e-05],
                           [-1.47700e-02,  7.05800e-03,  1.93800e-03, -1.07100e-03, -2.84900e-04,  1.40000e-04,  1.11800e-04, -2.52200e-05]])

# Reaction 8
chebyshev_reaction('aadduct (+ M) <=> aQOOH[O] (+ M)',
                   Tmin=180.0, Tmax=1500.0,
                   Pmin=(0.01, 'atm'), Pmax=(98.692, 'atm'),
                   coeffs=[[-4.56500e+00,  2.09200e+00, -6.22800e-01, -1.06500e-01,  1.29500e-02,  1.27600e-02,  1.10900e-03, -1.19700e-03],
                           [ 9.32100e+00,  1.22300e+00,  2.24500e-01, -2.44700e-02, -2.80100e-02, -5.72700e-03,  2.53400e-03,  1.41700e-03],
                           [-7.31900e-01,  3.29100e-01,  1.33400e-01,  1.97900e-02, -8.29100e-03, -5.10800e-03, -4.41000e-04,  7.17400e-04],
                           [-2.57000e-01,  4.58400e-02,  4.77700e-02,  1.22300e-02, -6.65500e-04, -4.82100e-04,  5.81200e-05, -1.01600e-04],
                           [-6.61300e-02, -3.39200e-02,  7.49100e-03,  5.83600e-03,  8.23500e-04,  5.29700e-05,  1.72700e-04,  2.79300e-05],
                           [-4.14100e-02, -3.24400e-02, -8.12100e-03,  2.73500e-03,  1.86100e-03, -1.08900e-04, -2.60900e-04,  2.38800e-05],
                           [-4.91400e-02, -1.36900e-02, -8.31300e-03,  1.38900e-03,  1.65900e-03, -7.04500e-05, -3.81100e-04, -4.20600e-05],
                           [-3.49900e-02, -4.18500e-03, -2.49800e-03,  3.33700e-04,  8.38500e-04,  1.17400e-06, -1.78000e-04, -5.47300e-05],
                           [-1.18100e-02,  4.02600e-04,  4.38400e-04,  7.94000e-05, -7.55200e-05,  1.28900e-04,  1.56000e-05, -2.90700e-05],
                           [-2.80800e-03,  7.80800e-03,  2.26000e-03, -1.15300e-03, -3.87800e-04,  1.26300e-04,  1.31700e-04, -1.34900e-05]])

# Reaction 9
chebyshev_reaction('O2 + aR (+ M) <=> aQOOH[O] (+ M)',
                   Tmin=180.0, Tmax=1500.0,
                   Pmin=(0.01, 'atm'), Pmax=(98.692, 'atm'),
                   coeffs=[[ 1.04600e+01,  1.63900e+00, -2.07500e-01, -7.79700e-02, -1.40700e-02,  2.80500e-03,  2.35800e-03,  2.10300e-04],
                           [-1.92700e-01,  2.24800e-01,  1.22600e-01,  4.01100e-02,  3.26300e-03, -3.60900e-03, -1.45100e-03,  2.03900e-04],
                           [-2.70000e-01,  7.30000e-02,  4.90700e-02,  2.45800e-02,  8.17000e-03,  7.92300e-04, -9.37700e-04, -5.95800e-04],
                           [-1.96100e-01,  4.58900e-02,  2.45300e-02,  7.72800e-03,  5.85800e-04, -5.60700e-04, -1.20900e-04,  1.10000e-04],
                           [-6.75100e-02,  1.24700e-02,  5.59700e-03,  6.25200e-04, -9.16000e-04, -5.85700e-04, -4.81400e-05,  1.34800e-04],
                           [-5.17400e-02, -6.87900e-03, -3.19700e-03, -5.09500e-04,  3.74000e-04,  2.69100e-04,  3.39600e-05, -4.59800e-05],
                           [-5.19400e-02, -1.12900e-02, -5.12300e-03, -6.38500e-04,  7.93200e-04,  5.50000e-04,  9.40100e-05, -7.76400e-05],
                           [-1.69700e-02, -7.36400e-03, -3.57700e-03, -7.27500e-04,  3.09700e-04,  2.93600e-04,  7.71700e-05, -2.05200e-05],
                           [ 7.71300e-03, -1.92200e-03, -1.53200e-03, -9.57300e-04, -4.16400e-04, -8.13100e-05,  4.03600e-05,  4.34600e-05],
                           [ 1.39000e-02,  4.91500e-03,  2.20400e-03,  2.57000e-04, -3.45000e-04, -2.28500e-04, -3.40900e-05,  3.31300e-05]])
#  aQOOHb(+M) <=> aQOOHg(+M)                           1.000e+00 0.000     0.000
#      TCHEB/ 180.000   1500.000 /
#      PCHEB/ 0.010     98.692   /
#      CHEB/ 10 8/
#      CHEB/ -9.384e+00   1.233e+00    -4.809e-01   -8.105e-02   8.900e-03   /
#      CHEB/ 9.643e-03    9.502e-04    -1.025e-03   9.160e+00    1.125e+00   /
#      CHEB/ 1.698e-01    1.181e-02    -3.620e-02   -9.343e-03   3.594e-03   /
#      CHEB/ 2.045e-03    8.058e-01    2.274e-01    9.240e-04    6.162e-02   /
#      CHEB/ 1.322e-02    -8.753e-03   -4.554e-03   1.411e-04    -2.718e-01  /
#      CHEB/ 2.478e-01    -9.503e-03   1.828e-03    9.737e-03    2.150e-03   /
#      CHEB/ -9.006e-04   -1.013e-03   -1.548e-01   1.167e-01    1.217e-02   /
#      CHEB/ -4.863e-03   2.069e-03    2.176e-04    4.803e-04    2.117e-04   /
#      CHEB/ -1.019e-01   4.537e-02    5.964e-03    -7.499e-03   2.031e-03   /
#      CHEB/ 6.733e-04    -2.175e-04   1.182e-04    -5.069e-02   1.098e-02   /
#      CHEB/ 3.406e-03    -7.259e-03   1.949e-04    1.402e-03    -2.023e-05  /
#      CHEB/ -1.388e-04   -1.256e-02   3.392e-03    3.190e-03    -3.566e-03  /
#      CHEB/ -1.243e-03   7.380e-04    1.699e-04    -5.975e-05   1.396e-03   /
#      CHEB/ 8.929e-03    4.383e-03    -1.081e-03   -1.577e-03   7.470e-05   /
#      CHEB/ 1.625e-04    3.849e-06    6.909e-03    1.044e-02    4.745e-03   /
#      CHEB/ 3.114e-04    -1.319e-03   -3.175e-04   1.354e-04    4.477e-05   /
#  aQOOH[O](+M) <=> aQOOHg(+M)                         1.000e+00 0.000     0.000
#      TCHEB/ 180.000   1500.000 /
#      PCHEB/ 0.010     98.692   /
#      CHEB/ 10 8/
#      CHEB/ -6.880e-01   1.256e+00    -2.057e-01   -2.937e-02   1.493e-02   /
#      CHEB/ 7.275e-03    -6.727e-04   -1.357e-03   5.231e+00    1.313e+00   /
#      CHEB/ -4.979e-02   1.498e-02    -1.347e-02   -3.079e-03   2.275e-03   /
#      CHEB/ 8.431e-04    4.658e-01    1.917e-01    8.645e-02    3.717e-02   /
#      CHEB/ -6.091e-03   -6.967e-03   -1.609e-03   6.529e-04    -3.109e-01  /
#      CHEB/ 1.098e-01    -6.067e-02   -1.161e-02   1.100e-02    2.265e-03   /
#      CHEB/ -3.839e-04   -3.297e-04   -1.462e-01   1.331e-01    -5.252e-02  /
#      CHEB/ -1.367e-02   4.640e-04    1.014e-03    1.234e-03    3.210e-04   /