units(length='cm', time='s', quantity='mol', act_energy='kcal/mol')

ideal_gas(name='gas',
          elements="H D T C Ci O Oi N Ne Ar He Si S F Cl Br I X",
          species="""OH             bQOOH[O]       acetone
                     H2O            balkoxyketone  ibutenol
                     trisub_epoxy   bQOOHg         CH2O
                     galkene        O2             bR
                     bQOOHa         bRO2           disub_epoxy
                     HO2""",
          reactions='all',
          initial_state=state(temperature=300.0, pressure=OneAtm))

#-------------------------------------------------------------------------------
# Element data
#-------------------------------------------------------------------------------

element(symbol='Ci', atomic_mass=13.003)
element(symbol='D', atomic_mass=2.014)
element(symbol='Oi', atomic_mass=18.0)
element(symbol='T', atomic_mass=3.016)
element(symbol='X', atomic_mass=195.083)
#-------------------------------------------------------------------------------
# Species data
#-------------------------------------------------------------------------------

species(name='OH',
        atoms='H:1 O:1',
        thermo=(NASA([10.00, 984.14],
                     [ 3.49686242E+00,  1.83973160E-04, -9.97634499E-07,
                       1.56942783E-09, -6.10128175E-13,  3.41673934E+03,
                       1.48093120E+00]),
                NASA([984.14, 3000.00],
                     [ 3.45221464E+00, -2.95124034E-04,  7.39418622E-07,
                      -2.89309866E-10,  3.53041498E-14,  3.45751599E+03,
                       1.85813897E+00])))

species(name='bQOOH[O]',
        atoms='C:4 H:9 O:3',
        thermo=(NASA([10.00, 338.69],
                     [ 3.60915854E+00,  3.39069566E-02,  2.22227265E-04,
                      -8.23527342E-07,  8.56246333E-10, -2.11552351E+04,
                       1.23284605E+01]),
                NASA([338.69, 3000.00],
                     [ 5.03198881E+00,  5.46235886E-02, -3.56935806E-05,
                       1.12371751E-08, -1.35390171E-12, -2.14668178E+04,
                       3.82760723E+00])))

species(name='acetone',
        atoms='C:3 H:6 O:1',
        thermo=(NASA([10.00, 414.35],
                     [ 3.73496166E+00,  3.05743218E-02, -1.26253585E-04,
                       3.66080978E-07, -3.31430437E-10, -2.64625264E+04,
                       8.24936012E+00]),
                NASA([414.35, 3000.00],
                     [ 1.70010292E-01,  3.28431468E-02, -1.80960132E-05,
                       4.82960690E-09, -5.02388538E-13, -2.58911433E+04,
                       2.56372653E+01])))

species(name='H2O',
        atoms='H:2 O:1',
        thermo=(NASA([10.00, 773.84],
                     [ 4.00473541E+00, -2.39729134E-04,  8.11862955E-07,
                       1.47891862E-09, -1.19783539E-12, -3.03533807E+04,
                      -9.96254147E-02]),
                NASA([773.84, 3000.00],
                     [ 3.52133374E+00,  1.05377009E-03,  6.40722099E-07,
                      -3.86240235E-10,  5.49243294E-14, -3.02424794E+04,
                       2.34173094E+00])))

species(name='balkoxyketone',
        atoms='C:4 H:7 O:2',
        thermo=(NASA([10.00, 269.93],
                     [ 3.81931151E+00,  1.68519318E-02,  2.42742224E-04,
                      -9.64821161E-07,  1.18509335E-09, -2.02156602E+04,
                       1.20521854E+01]),
                NASA([269.93, 3000.00],
                     [ 3.57555944E+00,  4.28868089E-02, -2.65390705E-05,
                       7.99659117E-09, -9.32983470E-13, -2.02841883E+04,
                       1.13957990E+01])))

species(name='ibutenol',
        atoms='C:4 H:8 O:1',
        thermo=(NASA([10.00, 135.97],
                     [ 3.95714996E+00,  5.72646980E-03,  4.63611760E-04,
                      -3.04137514E-06,  6.85019471E-09, -2.38782578E+04,
                       8.21931848E+00]),
                NASA([135.97, 3000.00],
                     [ 3.32467612E+00,  3.69033556E-02, -1.89960416E-05,
                       4.73417677E-09, -4.59705291E-13, -2.38726791E+04,
                       9.58133237E+00])))

species(name='trisub_epoxy',
        atoms='C:4 H:8 O:2',
        thermo=(NASA([10.00, 209.19],
                     [ 3.75295042E+00,  2.37546930E-02,  1.26610110E-04,
                      -4.78364365E-07,  5.79468168E-10, -4.23477550E+04,
                       1.12739684E+01]),
                NASA([209.19, 3000.00],
                     [ 2.64185254E+00,  4.50006531E-02, -2.57361066E-05,
                       7.15266054E-09, -7.72980731E-13, -4.23012694E+04,
                       1.48960343E+01])))

species(name='bQOOHg',
        atoms='C:4 H:9 O:3',
        thermo=(NASA([10.00, 441.09],
                     [ 3.56595280E+00,  3.36073467E-02,  2.03462772E-04,
                      -5.98977617E-07,  4.83271168E-10, -2.38675902E+04,
                       1.33537891E+01]),
                NASA([441.09, 3000.00],
                     [ 6.09031192E+00,  5.80517622E-02, -4.06392697E-05,
                       1.32574026E-08, -1.62501077E-12, -2.45507757E+04,
                      -1.97849715E+00])))

species(name='CH2O',
        atoms='C:1 H:2 O:1',
        thermo=(NASA([10.00, 601.31],
                     [ 4.03190845E+00, -1.93233367E-03,  8.89743345E-06,
                       2.98105926E-09, -7.90813886E-12, -1.42276270E+04,
                       3.47574660E+00]),
                NASA([601.31, 3000.00],
                     [ 1.40134195E+00,  9.48858016E-03, -4.43088317E-06,
                       9.48452194E-10, -7.43790219E-14, -1.38013869E+04,
                       1.57423780E+01])))

species(name='galkene',
        atoms='C:4 H:8 O:1',
        thermo=(NASA([10.00, 383.47],
                     [ 3.84035604E+00,  1.20378740E-02,  1.87486319E-04,
                      -5.44759148E-07,  4.80711015E-10, -1.97040110E+04,
                       1.02570291E+01]),
                NASA([383.47, 3000.00],
                     [ 4.00413385E+00,  3.79025144E-02, -2.15435710E-05,
                       6.15213311E-09, -6.97446345E-13, -1.99193004E+04,
                       6.98052628E+00])))

species(name='O2',
        atoms='O:2',
        thermo=(NASA([10.00, 605.96],
                     [ 3.50743498E+00, -4.43860349E-04,  1.45938058E-06,
                       1.61509333E-09, -2.32050052E-12, -9.24756224E+02,
                       4.72183634E+00]),
                NASA([605.96, 3000.00],
                     [ 2.87462882E+00,  2.17840991E-03, -1.18262921E-06,
                       2.86910493E-10, -2.53297146E-14, -8.19517838E+02,
                       7.69331810E+00])))

species(name='bR',
        atoms='C:4 H:9 O:1',
        thermo=(NASA([10.00, 483.43],
                     [ 3.38164846E+00,  5.97142637E-02, -1.58320095E-04,
                       3.04908893E-07, -2.13091806E-10, -1.21697790E+04,
                       1.09226843E+01]),
                NASA([483.43, 3000.00],
                     [ 2.33428824E+00,  4.22094427E-02, -2.28029290E-05,
                       6.04614564E-09, -6.30240159E-13, -1.17626970E+04,
                       1.83772893E+01])))

species(name='bQOOHa',
        atoms='C:4 H:9 O:3',
        thermo=(NASA([10.00, 390.53],
                     [ 3.54969236E+00,  3.76592474E-02,  1.76622653E-04,
                      -5.98063750E-07,  5.45069236E-10, -2.71105788E+04,
                       1.31518761E+01]),
                NASA([390.53, 3000.00],
                     [ 5.33564209E+00,  5.64935715E-02, -3.83214298E-05,
                       1.22990604E-08, -1.49549987E-12, -2.75331888E+04,
                       2.59015836E+00])))

species(name='bRO2',
        atoms='C:4 H:9 O:3',
        thermo=(NASA([10.00, 461.39],
                     [ 3.53964713E+00,  3.88723795E-02,  9.57420148E-05,
                      -2.80380499E-07,  2.09647462E-10, -3.25012742E+04,
                       1.18803618E+01]),
                NASA([461.39, 3000.00],
                     [ 3.47201723E+00,  6.00510247E-02, -4.00567321E-05,
                       1.25663813E-08, -1.49496682E-12, -3.27142209E+04,
                       9.77903975E+00])))

species(name='disub_epoxy',
        atoms='C:4 H:8 O:2',
        thermo=(NASA([10.00, 549.41],
                     [ 3.89863211E+00,  5.97532637E-03,  1.66685676E-04,
                      -3.10743768E-07,  1.78330192E-10, -3.82545309E+04,
                       1.13847308E+01]),
                NASA([549.41, 3000.00],
                     [-6.40277648E-01,  6.05960003E-02, -4.13427220E-05,
                       1.31555461E-08, -1.57685017E-12, -3.80814140E+04,
                       2.76005436E+01])))

species(name='HO2',
        atoms='H:1 O:2',
        thermo=(NASA([10.00, 891.11],
                     [ 4.02887004E+00, -1.75769289E-03,  1.08726004E-05,
                      -1.13812972E-08,  3.90113097E-12,  4.95165001E+02,
                       4.69302008E+00]),
                NASA([891.11, 3000.00],
                     [ 3.06571044E+00,  4.28505005E-03, -2.19325920E-06,
                       5.58882699E-10, -5.61246669E-14,  5.98557610E+02,
                       8.84564156E+00])))

#-------------------------------------------------------------------------------
# Reaction data
#-------------------------------------------------------------------------------

# Reaction 1
chebyshev_reaction('bQOOHg (+ M) <=> bRO2 (+ M)',
                   Tmin=180.0, Tmax=1500.0,
                   Pmin=(0.01, 'atm'), Pmax=(98.692, 'atm'),
                   coeffs=[[ 5.79300e+00,  3.15500e-01, -9.95500e-02,  6.28100e-03,  3.29700e-03, -6.77300e-05, -1.63700e-04, -2.64600e-05],
                           [ 1.70300e+00,  5.82800e-01, -1.78300e-01,  8.03600e-03,  6.67400e-03,  3.09700e-05, -3.41200e-04, -5.95600e-05],
                           [ 4.13000e-01,  4.58800e-01, -1.26300e-01, -2.31600e-03,  6.41700e-03,  5.04000e-04, -3.60800e-04, -7.91900e-05],
                           [-5.90000e-02,  3.06600e-01, -6.65500e-02, -1.17000e-02,  5.04400e-03,  1.11900e-03, -3.24100e-04, -1.10600e-04],
                           [-1.45600e-01,  1.72800e-01, -2.02700e-02, -1.51200e-02,  2.53900e-03,  1.56800e-03, -1.79400e-04, -1.42600e-04],
                           [-9.48000e-02,  8.19100e-02,  3.96300e-03, -1.23500e-02, -1.42900e-04,  1.56700e-03,  5.32200e-05, -1.52200e-04],
                           [-3.97700e-02,  3.32500e-02,  1.02000e-02, -6.76400e-03, -1.86500e-03,  1.09200e-03,  2.75600e-04, -1.19500e-04],
                           [-1.37800e-02,  1.25100e-02,  7.71300e-03, -1.94800e-03, -2.19400e-03,  4.02800e-04,  3.79000e-04, -4.77900e-05],
                           [-6.47200e-03,  4.91600e-03,  3.86700e-03,  5.05600e-04, -1.54800e-03, -1.56900e-04,  3.26500e-04,  3.24300e-05],
                           [-4.30800e-03,  1.72100e-03,  1.61200e-03,  1.00400e-03, -6.79900e-04, -3.96600e-04,  1.74600e-04,  8.39400e-05]])

# Reaction 2
chebyshev_reaction('bQOOHa (+ M) <=> bRO2 (+ M)',
                   Tmin=180.0, Tmax=1500.0,
                   Pmin=(0.01, 'atm'), Pmax=(98.692, 'atm'),
                   coeffs=[[ 2.81500e+00,  8.57100e-01, -1.32100e-01, -1.27500e-02,  6.80900e-04,  4.86200e-04,  1.51800e-04,  7.73800e-06],
                           [ 2.72400e+00,  1.24000e+00, -1.46000e-01, -2.40900e-02, -2.41500e-03,  5.31500e-04,  3.46800e-04,  8.68500e-05],
                           [ 6.61600e-01,  4.21700e-01,  1.30900e-02, -4.42300e-03, -7.75000e-03, -1.33700e-03,  3.10200e-04,  2.30700e-04],
                           [ 1.35300e-02,  1.52800e-02,  3.26300e-02,  1.64200e-02, -3.22400e-03, -3.24200e-03, -3.65800e-04,  2.73500e-04],
                           [-1.21900e-01,  1.24300e-02, -1.45700e-02,  1.32000e-02,  5.22700e-03, -1.98000e-03, -1.14300e-03, -1.67700e-05],
                           [-9.83400e-02,  7.65100e-02, -3.05900e-02, -7.56800e-04,  6.41300e-03,  8.58600e-04, -8.69400e-04, -3.66400e-04],
                           [-4.64100e-02,  6.55600e-02, -1.48700e-02, -6.50900e-03,  2.24700e-03,  1.79800e-03,  7.03900e-06, -3.27900e-04],
                           [-1.27200e-02,  2.18300e-02,  1.18300e-03, -4.71600e-03, -6.02600e-04,  9.54000e-04,  3.85900e-04, -4.88900e-05],
                           [-1.96800e-03, -2.30000e-03,  5.91700e-03, -2.17500e-03, -8.79700e-04,  1.60800e-04,  2.31400e-04,  8.78500e-05],
                           [-2.04600e-03, -3.27200e-03,  3.75300e-03, -8.84100e-04, -4.54800e-04, -3.15600e-05,  5.74200e-05,  5.03700e-05]])

# Reaction 3
chebyshev_reaction('bQOOH[O] (+ M) <=> bRO2 (+ M)',
                   Tmin=180.0, Tmax=1500.0,
                   Pmin=(0.01, 'atm'), Pmax=(98.692, 'atm'),
                   coeffs=[[ 8.82200e+00,  9.50700e-01, -2.22600e-01,  1.58100e-02,  4.13300e-03, -2.68400e-03,  3.50100e-05,  3.54900e-04],
                           [ 7.18900e-02,  9.71900e-01, -5.87000e-02, -4.73200e-02,  2.19000e-03,  3.10500e-03, -1.04000e-03, -1.43400e-04],
                           [-5.15900e-01,  3.47200e-01,  5.77700e-02, -1.48400e-02, -1.32600e-02,  1.53100e-03,  1.33000e-03, -3.93500e-04],
                           [-2.48700e-01,  1.39300e-01,  1.84400e-02,  1.46800e-02, -6.48000e-03, -3.41400e-03,  8.02000e-04,  3.97000e-04],
                           [-1.11700e-01,  6.84300e-02, -1.22100e-02,  1.38600e-02,  2.81100e-03, -2.96500e-03, -8.17000e-04,  3.79300e-04],
                           [-5.09200e-02,  3.91100e-02, -1.78400e-02,  4.65100e-03,  5.22500e-03, -4.63900e-04, -1.09800e-03, -9.04200e-05],
                           [-2.34100e-02,  2.46700e-02, -1.23600e-02, -1.43900e-03,  3.47100e-03,  9.60100e-04, -5.04800e-04, -2.95900e-04],
                           [-1.24300e-02,  1.66000e-02, -5.85400e-03, -3.25700e-03,  1.29100e-03,  1.04500e-03,  2.14100e-05, -2.02800e-04],
                           [-7.25400e-03,  9.91800e-03, -1.14900e-03, -2.83700e-03, -1.39800e-06,  6.38000e-04,  1.98900e-04, -5.92300e-05],
                           [-4.43700e-03,  5.27000e-03,  9.82900e-04, -1.80800e-03, -4.12900e-04,  2.63100e-04,  1.62700e-04,  1.64500e-05]])

# Reaction 4
chebyshev_reaction('O2 + bR (+ M) <=> bRO2 (+ M)',
                   Tmin=180.0, Tmax=1500.0,
                   Pmin=(0.01, 'atm'), Pmax=(98.692, 'atm'),
                   coeffs=[[ 1.08500e+01,  1.99600e-01, -7.19700e-02,  1.08700e-02, -9.78900e-06,  1.40100e-04, -8.58100e-05, -9.17900e-06],
                           [-3.35300e-01,  3.47700e-01, -1.16400e-01,  1.15200e-02,  2.72500e-03, -3.02000e-04, -6.03400e-05, -3.94200e-05],
                           [-1.50200e-01,  2.44300e-01, -6.55700e-02, -4.04400e-03,  5.40100e-03, -3.97300e-04, -1.36800e-04, -1.40000e-05],
                           [-1.09700e-01,  1.49700e-01, -2.56200e-02, -1.18600e-02,  4.79700e-03,  3.07300e-04, -2.93300e-04, -2.97400e-06],
                           [-7.28200e-02,  8.86900e-02, -6.82800e-03, -1.08200e-02,  2.18700e-03,  9.69100e-04, -2.68700e-04, -4.57000e-05],
                           [-4.78200e-02,  5.38700e-02, -1.07600e-03, -6.68200e-03,  7.71700e-05,  1.00500e-03, -6.74100e-05, -8.96700e-05],
                           [-2.98500e-02,  3.12100e-02,  1.16200e-03, -3.66300e-03, -6.77100e-04,  6.18500e-04,  1.13200e-04, -8.11400e-05],
                           [-1.60200e-02,  1.43600e-02,  3.08800e-03, -2.18100e-03, -6.93500e-04,  2.59500e-04,  1.59000e-04, -3.31600e-05],
                           [-6.20400e-03,  2.83500e-03,  4.22100e-03, -1.29300e-03, -6.02400e-04,  8.31300e-05,  1.19300e-04,  7.73800e-06],
                           [-5.67200e-04, -3.05600e-03,  3.93900e-03, -4.63400e-04, -5.63900e-04,  1.43800e-05,  7.37200e-05,  2.18900e-05]])
#  bRO2(+M) <=> bQOOHg(+M)                             1.000e+00 0.000     0.000
#      TCHEB/ 180.000   1500.000 /
#      PCHEB/ 0.010     98.692   /
#      CHEB/ 10 8/
#      CHEB/ -4.920e+00   3.155e-01    -9.955e-02   6.281e-03    3.297e-03   /
#      CHEB/ -6.773e-05   -1.637e-04   -2.646e-05   1.126e+01    5.828e-01   /
#      CHEB/ -1.783e-01   8.036e-03    6.674e-03    3.097e-05    -3.412e-04  /
#      CHEB/ -5.956e-05   5.588e-01    4.588e-01    -1.263e-01   -2.316e-03  /
#      CHEB/ 6.417e-03    5.040e-04    -3.608e-04   -7.919e-05   -2.188e-02  /
#      CHEB/ 3.066e-01    -6.655e-02   -1.170e-02   5.044e-03    1.119e-03   /
#      CHEB/ -3.241e-04   -1.106e-04   -1.398e-01   1.728e-01    -2.027e-02  /
#      CHEB/ -1.512e-02   2.539e-03    1.568e-03    -1.794e-04   -1.426e-04  /
#      CHEB/ -9.493e-02   8.191e-02    3.963e-03    -1.235e-02   -1.429e-04  /
#      CHEB/ 1.567e-03    5.322e-05    -1.522e-04   -4.035e-02   3.325e-02   /
#      CHEB/ 1.020e-02    -6.764e-03   -1.865e-03   1.092e-03    2.756e-04   /
#      CHEB/ -1.195e-04   -1.423e-02   1.251e-02    7.713e-03    -1.948e-03  /
#      CHEB/ -2.194e-03   4.028e-04    3.790e-04    -4.779e-05   -6.796e-03  /
#      CHEB/ 4.916e-03    3.867e-03    5.056e-04    -1.548e-03   -1.569e-04  /
#      CHEB/ 3.265e-04    3.243e-05    -4.494e-03   1.721e-03    1.612e-03   /
#      CHEB/ 1.004e-03    -6.799e-04   -3.966e-04   1.746e-04    8.394e-05   /

# Reaction 5
chebyshev_reaction('bQOOHa (+ M) <=> bQOOHg (+ M)',
                   Tmin=180.0, Tmax=1500.0,
                   Pmin=(0.01, 'atm'), Pmax=(98.692, 'atm'),
                   coeffs=[[-5.87400e+00, -3.45400e-01, -3.50600e-01, -6.14700e-04,  7.97000e-03, -3.29400e-04, -2.42000e-04,  7.04600e-05],
                           [ 8.82200e+00,  1.62100e+00, -1.51500e-01, -5.05600e-02, -3.41200e-03,  3.78900e-03,  3.89700e-04, -3.14200e-04],
                           [ 8.63500e-01,  5.82500e-01, -4.49600e-02,  1.28800e-02, -4.33400e-03, -4.47500e-03,  3.04900e-04,  5.55100e-04],
                           [-2.04700e-01,  3.09700e-01, -4.62900e-02, -4.53100e-03,  1.24600e-02, -1.00700e-03, -2.36000e-03, -9.25700e-05],
                           [-1.07800e-01,  1.67000e-01, -2.03300e-03, -2.49000e-02,  5.98500e-03,  4.90100e-03, -8.19000e-04, -9.57800e-04],
                           [ 1.86500e-02,  5.97400e-02,  2.03800e-02, -1.53300e-02, -3.69400e-03,  3.46700e-03,  1.18300e-03, -4.26700e-04],
                           [ 1.78600e-02,  1.89800e-02,  1.42600e-02, -3.07600e-03, -4.76000e-03,  4.10300e-04,  1.15100e-03,  1.72400e-04],
                           [-6.63600e-03,  1.01700e-02,  6.10800e-03,  8.55400e-04, -2.43600e-03, -7.31000e-04,  4.90300e-04,  2.44600e-04],
                           [-1.88000e-02,  3.46600e-03,  3.45400e-03,  1.03400e-03, -7.90600e-04, -7.56500e-04,  1.07500e-04,  1.63600e-04],
                           [-1.31100e-02, -1.54500e-03,  2.42400e-03,  7.33200e-04, -4.38300e-05, -5.15200e-04, -7.80700e-05,  1.13400e-04]])

# Reaction 6
chebyshev_reaction('bQOOH[O] (+ M) <=> bQOOHg (+ M)',
                   Tmin=180.0, Tmax=1500.0,
                   Pmin=(0.01, 'atm'), Pmax=(98.692, 'atm'),
                   coeffs=[[ 2.12100e+00, -5.01200e-01, -3.41400e-01,  1.40700e-02,  8.96600e-03, -2.79000e-03, -3.18600e-04,  4.48700e-04],
                           [ 3.27600e+00,  1.57200e+00, -1.49000e-01, -5.35300e-02,  7.44600e-05,  5.43900e-03, -6.48900e-04, -6.55400e-04],
                           [ 2.13400e-01,  6.80500e-01, -2.93800e-02, -3.95100e-03, -7.95900e-03, -1.20700e-03,  1.34800e-03, -6.82100e-05],
                           [-1.71800e-01,  3.14300e-01, -3.38900e-02,  3.42700e-03,  6.75500e-03, -3.07300e-03, -1.11500e-03,  4.58100e-04],
                           [-6.54000e-02,  1.39300e-01, -1.28400e-02, -1.21000e-02,  8.25000e-03,  2.01700e-03, -1.63200e-03, -4.02600e-04],
                           [ 1.47800e-02,  6.12200e-02,  5.91200e-03, -1.47700e-02,  7.86800e-04,  3.91100e-03,  8.11000e-05, -6.99400e-04],
                           [ 1.47200e-02,  2.81900e-02,  1.07100e-02, -7.78200e-03, -3.80100e-03,  2.02200e-03,  1.15000e-03, -2.30000e-04],
                           [-4.99200e-03,  1.29800e-02,  7.86600e-03, -1.39800e-03, -3.57400e-03, -1.39400e-04,  9.48500e-04,  2.00800e-04],
                           [-1.85700e-02,  3.70600e-03,  4.59700e-03,  1.16300e-03, -1.70300e-03, -9.37600e-04,  3.42700e-04,  2.80300e-04],
                           [-1.42500e-02, -3.57400e-04,  2.32300e-03,  1.22100e-03, -2.47800e-04, -7.70300e-04, -7.48400e-05,  1.81100e-04]])

# Reaction 7
chebyshev_reaction('O2 + bR (+ M) <=> bQOOHg (+ M)',
                   Tmin=180.0, Tmax=1500.0,
                   Pmin=(0.01, 'atm'), Pmax=(98.692, 'atm'),
                   coeffs=[[ 6.52000e+00, -1.31900e+00, -2.22600e-01,  2.70000e-02, -6.13000e-04,  1.31900e-03, -2.11000e-04, -1.07600e-04],
                           [ 1.23300e+00,  1.04200e+00, -2.76800e-01, -7.64000e-03,  1.53900e-02, -8.30800e-04,  1.91300e-05, -1.29600e-04],
                           [ 1.97600e-01,  5.98200e-01, -8.91500e-02, -4.51200e-02,  1.32100e-02,  2.37900e-03, -8.33900e-04, -1.82400e-05],
                           [-3.29400e-02,  2.74300e-01,  1.06500e-02, -4.16500e-02,  1.68400e-03,  4.73000e-03, -3.89800e-04, -3.03800e-04],
                           [ 1.09800e-02,  1.13900e-01,  3.05700e-02, -2.08100e-02, -5.93600e-03,  3.45000e-03,  7.38600e-04, -3.97400e-04],
                           [ 3.41300e-02,  5.14700e-02,  2.03800e-02, -5.26500e-03, -6.32200e-03,  7.84600e-04,  1.17400e-03, -1.09500e-04],
                           [ 1.55400e-02,  2.47400e-02,  1.07200e-02,  2.45800e-04, -3.41100e-03, -8.30000e-04,  7.67700e-04,  2.07200e-04],
                           [-4.58800e-03,  9.89600e-03,  5.87900e-03,  1.24700e-03, -1.25800e-03, -9.64100e-04,  1.70500e-04,  2.78000e-04],
                           [-1.52400e-02, -1.93300e-03,  5.30000e-03,  5.36200e-04, -1.98900e-04, -5.79200e-04, -1.47600e-04,  1.71100e-04],
                           [-1.05300e-02, -5.52700e-03,  3.09000e-03,  9.70600e-04, -1.87800e-04, -1.89600e-04, -1.83800e-04,  3.54700e-05]])
#  bRO2(+M) <=> bQOOHa(+M)                             1.000e+00 0.000     0.000
#      TCHEB/ 180.000   1500.000 /
#      PCHEB/ 0.010     98.692   /
#      CHEB/ 10 8/
#      CHEB/ -3.621e+00   8.571e-01    -1.321e-01   -1.275e-02   6.809e-04   /
#      CHEB/ 4.862e-04    1.518e-04    7.738e-06    8.692e+00    1.240e+00   /
#      CHEB/ -1.460e-01   -2.409e-02   -2.415e-03   5.315e-04    3.468e-04   /
#      CHEB/ 8.685e-05    7.166e-01    4.217e-01    1.309e-02    -4.423e-03  /
#      CHEB/ -7.750e-03   -1.337e-03   3.102e-04    2.307e-04    1.482e-02   /
#      CHEB/ 1.528e-02    3.263e-02    1.642e-02    -3.224e-03   -3.242e-03  /
#      CHEB/ -3.658e-04   2.735e-04    -1.267e-01   1.243e-02    -1.457e-02  /
#      CHEB/ 1.320e-02    5.227e-03    -1.980e-03   -1.143e-03   -1.677e-05  /
#      CHEB/ -1.011e-01   7.651e-02    -3.059e-02   -7.568e-04   6.413e-03   /
#      CHEB/ 8.586e-04    -8.694e-04   -3.664e-04   -4.775e-02   6.556e-02   /
#      CHEB/ -1.487e-02   -6.509e-03   2.247e-03    1.798e-03    7.039e-06   /
#      CHEB/ -3.279e-04   -1.345e-02   2.183e-02    1.183e-03    -4.716e-03  /
#      CHEB/ -6.026e-04   9.540e-04    3.859e-04    -4.889e-05   -2.316e-03  /
#      CHEB/ -2.300e-03   5.917e-03    -2.175e-03   -8.797e-04   1.608e-04   /
#      CHEB/ 2.314e-04    8.785e-05    -2.166e-03   -3.272e-03   3.753e-03   /
#      CHEB/ -8.841e-04   -4.548e-04   -3.156e-05   5.742e-05    5.037e-05   /
#  bQOOHg(+M) <=> bQOOHa(+M)                           1.000e+00 0.000     0.000
#      TCHEB/ 180.000   1500.000 /
#      PCHEB/ 0.010     98.692   /
#      CHEB/ 10 8/
#      CHEB/ -1.597e+00   -3.454e-01   -3.506e-01   -6.147e-04   7.970e-03   /
#      CHEB/ -3.294e-04   -2.420e-04   7.046e-05    5.231e+00    1.621e+00   /
#      CHEB/ -1.515e-01   -5.056e-02   -3.412e-03   3.789e-03    3.897e-04   /
#      CHEB/ -3.142e-04   7.728e-01    5.825e-01    -4.496e-02   1.288e-02   /
#      CHEB/ -4.334e-03   -4.475e-03   3.049e-04    5.551e-04    -2.405e-01  /
#      CHEB/ 3.097e-01    -4.629e-02   -4.531e-03   1.246e-02    -1.007e-03  /
#      CHEB/ -2.360e-03   -9.257e-05   -1.184e-01   1.670e-01    -2.033e-03  /
#      CHEB/ -2.490e-02   5.985e-03    4.901e-03    -8.190e-04   -9.578e-04  /
#      CHEB/ 1.602e-02    5.974e-02    2.038e-02    -1.533e-02   -3.694e-03  /
#      CHEB/ 3.467e-03    1.183e-03    -4.267e-04   1.709e-02    1.898e-02   /
#      CHEB/ 1.426e-02    -3.076e-03   -4.760e-03   4.103e-04    1.151e-03   /
#      CHEB/ 1.724e-04    -6.907e-03   1.017e-02    6.108e-03    8.554e-04   /
#      CHEB/ -2.436e-03   -7.310e-04   4.903e-04    2.446e-04    -1.882e-02  /
#      CHEB/ 3.466e-03    3.454e-03    1.034e-03    -7.906e-04   -7.565e-04  /
#      CHEB/ 1.075e-04    1.636e-04    -1.304e-02   -1.545e-03   2.424e-03   /
#      CHEB/ 7.332e-04    -4.383e-05   -5.152e-04   -7.807e-05   1.134e-04   /

# Reaction 8
chebyshev_reaction('bQOOH[O] (+ M) <=> bQOOHa (+ M)',
                   Tmin=180.0, Tmax=1500.0,
                   Pmin=(0.01, 'atm'), Pmax=(98.692, 'atm'),
                   coeffs=[[ 2.02900e+00,  4.94200e-01, -5.02400e-01, -1.02100e-02,  1.85900e-02, -1.84500e-03, -1.91000e-03,  4.71100e-04],
                           [ 2.44400e+00,  1.66900e+00,  9.04700e-02, -8.88800e-02, -2.74800e-02,  6.58000e-03,  2.88400e-03, -7.62000e-04],
                           [ 3.30000e-02,  4.47400e-01,  1.05500e-01,  2.20700e-02, -1.89700e-02, -7.55100e-03,  1.05600e-03,  1.00200e-03],
                           [-1.78600e-01,  1.42800e-01, -3.66300e-03,  3.36100e-02,  6.52100e-03, -5.93900e-03, -2.33800e-03,  2.66900e-04],
                           [-5.03100e-02,  7.41900e-02, -2.97400e-02,  7.35400e-03,  1.17900e-02,  4.42000e-04, -1.98800e-03, -5.86800e-04],
                           [ 2.35100e-02,  4.78000e-02, -1.65000e-02, -7.27900e-03,  5.81100e-03,  2.87000e-03, -3.40500e-04, -5.78800e-04],
                           [ 1.61500e-02,  2.98100e-02, -2.97100e-03, -8.33600e-03,  5.38400e-04,  2.09300e-03,  5.19500e-04, -2.08600e-04],
                           [-4.75500e-03,  1.67900e-02,  2.88000e-03, -5.05600e-03, -1.30600e-03,  8.02100e-04,  5.26700e-04,  4.42100e-05],
                           [-1.69900e-02,  5.45000e-03,  4.48400e-03, -2.04900e-03, -1.36600e-03,  7.88600e-05,  2.87300e-04,  1.01200e-04],
                           [-1.52100e-02, -3.64300e-04,  3.75900e-03, -4.75100e-04, -8.69800e-04, -1.42500e-04,  1.02500e-04,  6.81300e-05]])

# Reaction 9
chebyshev_reaction('O2 + bR (+ M) <=> bQOOHa (+ M)',
                   Tmin=180.0, Tmax=1500.0,
                   Pmin=(0.01, 'atm'), Pmax=(98.692, 'atm'),
                   coeffs=[[ 6.03500e+00, -1.61700e-01, -3.03000e-01, -4.63000e-02,  3.44100e-03,  7.02500e-03,  7.85200e-04, -9.49100e-04],
                           [ 7.55300e-01,  7.74400e-01, -5.17700e-03,  1.59800e-02, -1.46600e-02, -8.42800e-03,  7.70400e-04,  1.72200e-03],
                           [ 8.67200e-02,  3.58600e-01, -2.23500e-02,  5.16300e-03,  8.39500e-03, -2.96000e-03, -2.29800e-03, -2.58600e-04],
                           [-4.95500e-02,  1.62100e-01, -3.83000e-03, -1.21600e-02,  8.10000e-03,  1.87600e-03, -1.05800e-03, -6.37400e-04],
                           [ 1.42600e-02,  7.70100e-02,  6.63900e-03, -1.31000e-02,  1.99300e-03,  2.74800e-03,  3.92900e-05, -3.04500e-04],
                           [ 3.95700e-02,  4.31900e-02,  6.21200e-03, -7.27700e-03, -1.51100e-03,  1.69600e-03,  4.50600e-04, -7.80300e-05],
                           [ 1.72000e-02,  2.47800e-02,  4.50700e-03, -3.04800e-03, -1.89300e-03,  5.16600e-04,  4.40200e-04,  1.69400e-05],
                           [-3.02200e-03,  1.03200e-02,  4.77000e-03, -1.34500e-03, -1.30200e-03, -4.81000e-05,  2.66300e-04,  6.11000e-05],
                           [-1.35200e-02, -9.34500e-04,  4.97700e-03, -4.01500e-04, -8.48400e-04, -1.50300e-04,  9.76600e-05,  6.07100e-05],
                           [-1.13800e-02, -5.98100e-03,  3.99100e-03,  4.04000e-04, -6.78900e-04, -1.26900e-04,  3.59600e-05,  3.70000e-05]])
#  bRO2(+M) <=> bQOOH[O](+M)                           1.000e+00 0.000     0.000
#      TCHEB/ 180.000   1500.000 /
#      PCHEB/ 0.010     98.692   /
#      CHEB/ 10 8/
#      CHEB/ -6.070e+00   9.507e-01    -2.226e-01   1.581e-02    4.133e-03   /
#      CHEB/ -2.684e-03   3.501e-05    3.549e-04    1.224e+01    9.719e-01   /
#      CHEB/ -5.870e-02   -4.732e-02   2.190e-03    3.105e-03    -1.040e-03  /
#      CHEB/ -1.434e-04   -5.218e-01   3.472e-01    5.777e-02    -1.484e-02  /
#      CHEB/ -1.326e-02   1.531e-03    1.330e-03    -3.935e-04   -2.698e-01  /
#      CHEB/ 1.393e-01    1.844e-02    1.468e-02    -6.480e-03   -3.414e-03  /
#      CHEB/ 8.020e-04    3.970e-04    -1.225e-01   6.843e-02    -1.221e-02  /
#      CHEB/ 1.386e-02    2.811e-03    -2.965e-03   -8.170e-04   3.793e-04   /
#      CHEB/ -5.487e-02   3.911e-02    -1.784e-02   4.651e-03    5.225e-03   /
#      CHEB/ -4.639e-04   -1.098e-03   -9.042e-05   -2.493e-02   2.467e-02   /
#      CHEB/ -1.236e-02   -1.439e-03   3.471e-03    9.601e-04    -5.048e-04  /
#      CHEB/ -2.959e-04   -1.306e-02   1.660e-02    -5.854e-03   -3.257e-03  /
#      CHEB/ 1.291e-03    1.045e-03    2.141e-05    -2.028e-04   -7.432e-03  /
#      CHEB/ 9.918e-03    -1.149e-03   -2.837e-03   -1.398e-06   6.380e-04   /
#      CHEB/ 1.989e-04    -5.923e-05   -4.431e-03   5.270e-03    9.829e-04   /
#      CHEB/ -1.808e-03   -4.129e-04   2.631e-04    1.627e-04    1.645e-05   /
#  bQOOHg(+M) <=> bQOOH[O](+M)                         1.000e+00 0.000     0.000
#      TCHEB/ 180.000   1500.000 /
#      PCHEB/ 0.010     98.692   /
#      CHEB/ 10 8/
#      CHEB/ -2.057e+00   -5.012e-01   -3.414e-01   1.407e-02    8.966e-03   /
#      CHEB/ -2.790e-03   -3.186e-04   4.487e-04    5.884e+00    1.572e+00   /
#      CHEB/ -1.490e-01   -5.353e-02   7.446e-05    5.439e-03    -6.489e-04  /
#      CHEB/ -6.554e-04   6.176e-02    6.805e-01    -2.938e-02   -3.951e-03  /
#      CHEB/ -7.959e-03   -1.207e-03   1.348e-03    -6.821e-05   -2.301e-01  /