units(length='cm', time='s', quantity='mol', act_energy='kcal/mol')

ideal_gas(name='gas',
          elements="H D T C Ci O Oi N Ne Ar He Si S F Cl Br I X",
          species="""aOOHbalkene      OH               ibutanal
                     aR               performic_acid   disub_c4ether
                     aQOOHb           H                aadduct
                     trisub_epoxy     ibutenol         aQOOH[O]
                     ipropyl          aRO2             O2
                     formic_acid      propene          aQOOHg
                     ibut_peroxyacid  HO2              CH3""",
          reactions='all',
          initial_state=state(temperature=300.0, pressure=OneAtm))

#-------------------------------------------------------------------------------
# Element data
#-------------------------------------------------------------------------------

element(symbol='Ci', atomic_mass=13.003)
element(symbol='D', atomic_mass=2.014)
element(symbol='Oi', atomic_mass=18.0)
element(symbol='T', atomic_mass=3.016)
element(symbol='X', atomic_mass=195.083)
#-------------------------------------------------------------------------------
# Species data
#-------------------------------------------------------------------------------

species(name='aOOHbalkene',
        atoms='C:3 H:6 O:3',
        thermo=(NASA([10.00, 497.41],
                     [ 3.76691735E+00,  1.51417956E-02,  1.85499431E-04,
                      -4.61303214E-07,  3.27678941E-10, -3.02543837E+04,
                       1.09903968E+01]),
                NASA([497.41, 3000.00],
                     [ 6.20882781E+00,  4.08866173E-02, -2.89934946E-05,
                       9.60428979E-09, -1.19355432E-12, -3.10587131E+04,
                      -4.72842811E+00])))

species(name='OH',
        atoms='H:1 O:1',
        thermo=(NASA([10.00, 984.14],
                     [ 3.49686242E+00,  1.83973160E-04, -9.97634499E-07,
                       1.56942783E-09, -6.10128175E-13,  3.41673934E+03,
                       1.48093120E+00]),
                NASA([984.14, 3000.00],
                     [ 3.45221464E+00, -2.95124034E-04,  7.39418622E-07,
                      -2.89309866E-10,  3.53041498E-14,  3.45751599E+03,
                       1.85813897E+00])))

species(name='ibutanal',
        atoms='C:4 H:8 O:1',
        thermo=(NASA([10.00, 683.88],
                     [ 3.57157346E+00,  3.36936906E-02, -1.78475021E-05,
                       1.31946716E-08, -7.58008388E-12, -2.75703239E+04,
                       1.05595084E+01]),
                NASA([683.88, 3000.00],
                     [ 1.29043622E+00,  4.14804229E-02, -2.27411206E-05,
                       6.08619500E-09, -6.38995128E-13, -2.71284047E+04,
                       2.16477430E+01])))

species(name='aR',
        atoms='C:4 H:9 O:1',
        thermo=(NASA([10.00, 455.22],
                     [ 3.59625500E+00,  3.38947981E-02,  7.37257079E-06,
                      -3.99275335E-08,  2.49019944E-11, -1.46400094E+04,
                       1.18269265E+01]),
                NASA([455.22, 3000.00],
                     [ 2.49586309E+00,  4.35639890E-02, -2.44887770E-05,
                       6.73363769E-09, -7.23862433E-13, -1.45398263E+04,
                       1.62696907E+01])))

species(name='performic_acid',
        atoms='C:1 H:2 O:3',
        thermo=(NASA([10.00, 590.95],
                     [ 3.92633851E+00,  4.24517168E-03,  6.71106764E-05,
                      -1.36545385E-07,  8.03337864E-11, -3.63028176E+04,
                       8.06485813E+00]),
                NASA([590.95, 3000.00],
                     [ 4.39992934E+00,  1.85411415E-02, -1.36005501E-05,
                       4.62292431E-09, -5.88463603E-13, -3.66643888E+04,
                       3.44353230E+00])))

species(name='disub_c4ether',
        atoms='C:4 H:8 O:2',
        thermo=(NASA([10.00, 413.50],
                     [ 3.78241323E+00,  1.89501763E-02,  8.65302396E-05,
                      -1.80580575E-07,  1.13656264E-10, -3.83559904E+04,
                       1.09982450E+01]),
                NASA([413.50, 3000.00],
                     [ 4.29420885E-01,  5.13851903E-02, -3.11292293E-05,
                       9.11498284E-09, -1.03192718E-12, -3.80786961E+04,
                       2.42134976E+01])))

species(name='aQOOHb',
        atoms='C:4 H:9 O:3',
        thermo=(NASA([10.00, 412.78],
                     [ 3.15498836E+00,  8.55068303E-02, -2.35307993E-04,
                       4.71983261E-07, -3.62709267E-10, -2.98146777E+04,
                       1.52522123E+01]),
                NASA([412.78, 3000.00],
                     [ 4.18099845E+00,  5.26168288E-02, -3.23998410E-05,
                       9.59389339E-09, -1.09464519E-12, -2.97038828E+04,
                       1.35782328E+01])))

species(name='H',
        atoms='H:1',
        thermo=(NASA([10.00, 794.01],
                     [ 2.50000000E+00,  1.99051163E-15, -1.19089508E-17,
                       2.10805655E-20, -1.11017699E-23,  2.54725594E+04,
                      -4.61279342E-01]),
                NASA([794.01, 3000.00],
                     [ 2.50000000E+00,  1.52667235E-14, -1.58445285E-17,
                       6.63088600E-21, -9.62111674E-25,  2.54725594E+04,
                      -4.61279342E-01])))

species(name='aadduct',
        atoms='C:4 H:9 O:3',
        thermo=(NASA([10.00, 449.84],
                     [ 3.06901904E+00,  9.20724491E-02, -2.68085092E-04,
                       5.15249897E-07, -3.68046586E-10, -3.22674943E+04,
                       1.46591735E+01]),
                NASA([449.84, 3000.00],
                     [ 4.11210745E+00,  5.16955724E-02, -2.97401041E-05,
                       8.32758939E-09, -9.08861448E-13, -3.20466534E+04,
                       1.39578825E+01])))

species(name='trisub_epoxy',
        atoms='C:4 H:8 O:2',
        thermo=(NASA([10.00, 209.19],
                     [ 3.75295042E+00,  2.37546930E-02,  1.26610110E-04,
                      -4.78364365E-07,  5.79468168E-10, -3.91101310E+04,
                       1.12739684E+01]),
                NASA([209.19, 3000.00],
                     [ 2.64185254E+00,  4.50006531E-02, -2.57361066E-05,
                       7.15266054E-09, -7.72980731E-13, -3.90636454E+04,
                       1.48960343E+01])))

species(name='ibutenol',
        atoms='C:4 H:8 O:1',
        thermo=(NASA([10.00, 135.97],
                     [ 3.95714996E+00,  5.72646980E-03,  4.63611760E-04,
                      -3.04137514E-06,  6.85019471E-09, -2.39938579E+04,
                       8.21931848E+00]),
                NASA([135.97, 3000.00],
                     [ 3.32467612E+00,  3.69033556E-02, -1.89960416E-05,
                       4.73417677E-09, -4.59705291E-13, -2.39882792E+04,
                       9.58133237E+00])))

species(name='aQOOH[O]',
        atoms='C:4 H:9 O:3',
        thermo=(NASA([10.00, 488.36],
                     [ 3.54559533E+00,  3.89536133E-02,  8.47689703E-05,
                      -2.45147486E-07,  1.76157259E-10, -2.30126279E+04,
                       1.34685910E+01]),
                NASA([488.36, 3000.00],
                     [ 3.94214913E+00,  5.71928314E-02, -3.72516212E-05,
                       1.15209013E-08, -1.35808341E-12, -2.33075889E+04,
                       9.21628964E+00])))

species(name='ipropyl',
        atoms='C:3 H:7',
        thermo=(NASA([10.00, 421.76],
                     [ 3.73943775E+00,  3.10070157E-02, -1.51196908E-04,
                       4.35367329E-07, -3.85565052E-10,  9.49213457E+03,
                       7.79448918E+00]),
                NASA([421.76, 3000.00],
                     [-4.74526725E-01,  3.20862468E-02, -1.67340747E-05,
                       4.21365136E-09, -4.13155573E-13,  1.01934458E+04,
                       2.85865912E+01])))

species(name='aRO2',
        atoms='C:4 H:9 O:3',
        thermo=(NASA([10.00, 670.36],
                     [ 3.45405325E+00,  4.74751311E-02,  9.77507759E-06,
                      -6.31019603E-08,  3.75500067E-11, -3.16273328E+04,
                       1.39284976E+01]),
                NASA([670.36, 3000.00],
                     [ 5.04137652E+00,  5.19952978E-02, -3.16472789E-05,
                       9.22798587E-09, -1.03598915E-12, -3.21545254E+04,
                       4.56056770E+00])))

species(name='O2',
        atoms='O:2',
        thermo=(NASA([10.00, 605.96],
                     [ 3.50743498E+00, -4.43860349E-04,  1.45938058E-06,
                       1.61509333E-09, -2.32050052E-12, -9.24756224E+02,
                       4.72183634E+00]),
                NASA([605.96, 3000.00],
                     [ 2.87462882E+00,  2.17840991E-03, -1.18262921E-06,
                       2.86910493E-10, -2.53297146E-14, -8.19517838E+02,
                       7.69331810E+00])))

species(name='formic_acid',
        atoms='C:1 H:2 O:2',
        thermo=(NASA([10.00, 741.38],
                     [ 4.06855785E+00, -4.74562133E-03,  4.71797900E-05,
                      -6.07490052E-08,  2.51286794E-11, -4.66880837E+04,
                       6.53681035E+00]),
                NASA([741.38, 3000.00],
                     [ 1.13645847E+00,  1.74953124E-02, -1.08112403E-05,
                       3.08075326E-09, -3.34892658E-13, -4.64297918E+04,
                       1.86149484E+01])))

species(name='propene',
        atoms='C:3 H:6',
        thermo=(NASA([10.00, 519.53],
                     [ 3.98723879E+00,  4.72040503E-04,  6.51776229E-05,
                      -9.89891002E-08,  4.91141123E-11,  1.39262754E+03,
                       6.98071210E+00]),
                NASA([519.53, 3000.00],
                     [ 3.79893331E-01,  2.82457690E-02, -1.50108430E-05,
                       3.90894069E-09, -4.00521928E-13,  1.76745488E+03,
                       2.20218922E+01])))

species(name='aQOOHg',
        atoms='C:4 H:9 O:3',
        thermo=(NASA([10.00, 455.48],
                     [ 3.62522127E+00,  2.83222320E-02,  2.08527447E-04,
                      -5.67427418E-07,  4.35169138E-10, -2.50392131E+04,
                       1.26617758E+01]),
                NASA([455.48, 3000.00],
                     [ 5.13914202E+00,  5.96270859E-02, -4.14435328E-05,
                       1.34202375E-08, -1.63474553E-12, -2.56397695E+04,
                       1.46991116E+00])))

species(name='ibut_peroxyacid',
        atoms='C:4 H:8 O:3',
        thermo=(NASA([10.00, 1386.21],
                     [ 3.50995385E+00,  4.78670384E-02, -2.40781384E-05,
                       3.71046938E-09,  3.85442115E-13, -4.89947373E+04,
                       1.22017268E+01]),
                NASA([1386.21, 3000.00],
                     [ 1.24543146E+01,  3.02396862E-02, -1.38577031E-05,
                       3.05328904E-09, -2.63982457E-13, -5.22606206E+04,
                      -3.67061828E+01])))

species(name='HO2',
        atoms='H:1 O:2',
        thermo=(NASA([10.00, 891.11],
                     [ 4.02887004E+00, -1.75769289E-03,  1.08726004E-05,
                      -1.13812972E-08,  3.90113097E-12,  4.95165001E+02,
                       4.69302008E+00]),
                NASA([891.11, 3000.00],
                     [ 3.06571044E+00,  4.28505005E-03, -2.19325920E-06,
                       5.58882699E-10, -5.61246669E-14,  5.98557610E+02,
                       8.84564156E+00])))

species(name='CH3',
        atoms='C:1 H:3',
        thermo=(NASA([10.00, 616.77],
                     [ 3.98929952E+00,  5.45150461E-04,  9.01320092E-06,
                      -1.08320497E-08,  4.38985879E-12,  1.65859883E+04,
                       2.22446886E-01]),
                NASA([616.77, 3000.00],
                     [ 3.35928237E+00,  4.63117126E-03, -9.24365433E-07,
                      -9.02514624E-11,  3.56905106E-14,  1.66637014E+04,
                       2.95743732E+00])))

#-------------------------------------------------------------------------------
# Reaction data
#-------------------------------------------------------------------------------

# Reaction 1
chebyshev_reaction('aQOOH[O] (+ M) <=> aQOOHb (+ M)',
                   Tmin=180.0, Tmax=1500.0,
                   Pmin=(0.01, 'atm'), Pmax=(98.692, 'atm'),
                   coeffs=[[-3.52000e+00,  3.37500e+00, -8.21700e-01, -3.00900e-02,  7.98300e-02, -8.03800e-03, -8.13400e-03,  3.00100e-03],
                           [-1.15500e+00,  1.19200e+00,  7.58800e-01, -4.31400e-02, -7.43700e-02,  1.39600e-02,  5.36600e-03, -3.91300e-03],
                           [-3.56600e+00, -2.66500e-01,  2.18000e-01,  9.05000e-02, -3.96400e-03, -3.56700e-04,  4.13100e-04, -9.05200e-04],
                           [-1.96600e+00, -3.82100e-01, -1.01700e-01,  2.60400e-02,  1.51500e-02, -4.37400e-03,  8.18000e-04,  9.36500e-04],
                           [-8.34200e-01, -2.23800e-01, -9.02500e-02, -3.48600e-03,  5.86300e-03,  2.64100e-03, -1.01600e-04, -2.97500e-04],
                           [-3.11400e-01, -4.38300e-02, -7.07700e-02, -2.14400e-02,  2.28000e-03,  1.84100e-03,  8.43300e-05,  3.48200e-04],
                           [-7.22900e-02,  3.96100e-02, -2.18100e-02, -1.79100e-02, -3.58000e-03,  9.11500e-04,  5.02500e-04, -1.29000e-04],
                           [-8.71900e-03,  6.03800e-02,  8.30900e-03, -9.74700e-03, -4.19400e-03, -5.60700e-04,  2.47100e-04,  1.89400e-04],
                           [-4.46800e-04,  3.26200e-02,  2.30200e-02,  3.01400e-03, -3.47700e-03, -1.22600e-03, -1.50900e-04, -2.08300e-06],
                           [-2.30600e-02,  1.63200e-02,  1.24400e-02,  7.31600e-03,  1.00500e-03, -1.32400e-03, -4.02100e-04,  7.22600e-05]])

# Reaction 2
chebyshev_reaction('aQOOHg (+ M) <=> aQOOHb (+ M)',
                   Tmin=180.0, Tmax=1500.0,
                   Pmin=(0.01, 'atm'), Pmax=(98.692, 'atm'),
                   coeffs=[[-4.68400e+00,  2.34500e+00, -4.38900e-01, -6.29800e-02,  1.34000e-02,  7.93300e-03, -1.82200e-03, -6.94800e-04],
                           [-5.13700e+00,  2.70300e+00,  4.43600e-01, -7.57100e-02, -3.95700e-02,  4.97600e-03,  5.16600e-03, -8.55700e-04],
                           [-4.17600e+00, -4.66800e-01,  1.38100e-01,  1.36900e-01,  9.75500e-03, -1.85800e-02, -2.81300e-03,  2.44800e-03],
                           [-2.02200e+00, -6.72700e-01, -1.32900e-01,  3.66900e-02,  3.15500e-02,  3.92000e-03, -3.81700e-03, -1.37900e-03],
                           [-7.22300e-01, -2.48300e-01, -9.87900e-02, -2.70200e-02,  2.43300e-03,  7.55700e-03,  2.64500e-03, -8.11200e-04],
                           [-2.24500e-01, -5.92900e-02, -3.68100e-02, -1.50000e-02, -4.60700e-03,  1.60800e-04,  1.19300e-03,  6.97400e-04],
                           [-1.14400e-01,  2.84400e-02, -2.65100e-02, -1.33300e-02,  9.49200e-04,  1.15800e-03, -7.51200e-04, -2.40400e-04],
                           [-7.03500e-02,  5.31100e-02, -4.27500e-03, -1.25300e-02, -3.52700e-03,  1.07700e-03,  6.37600e-04, -1.97800e-04],
                           [-2.76600e-02,  4.88800e-02,  2.08000e-02,  1.07300e-03, -5.47100e-03, -2.37100e-03,  4.02200e-04,  4.88300e-04],
                           [-7.70300e-03,  3.05400e-02,  2.07200e-02,  9.35000e-03,  7.85800e-04, -2.12800e-03, -1.04200e-03,  4.17300e-05]])

# Reaction 3
chebyshev_reaction('aRO2 (+ M) <=> aQOOHb (+ M)',
                   Tmin=180.0, Tmax=1500.0,
                   Pmin=(0.01, 'atm'), Pmax=(98.692, 'atm'),
                   coeffs=[[-5.24400e+00,  1.91300e+00, -2.16700e-02, -3.78100e-02, -6.78800e-03,  3.86700e-03,  1.14200e-03, -3.09800e-04],
                           [ 9.46000e-01,  2.48500e+00,  1.25800e-01, -6.08600e-02, -6.02400e-03,  3.73500e-03,  1.24800e-03, -4.19400e-04],
                           [-3.16200e+00,  4.76000e-01,  1.20500e-01,  3.87700e-02,  1.38800e-03, -2.74900e-03, -8.25200e-04, -1.46600e-05],
                           [-2.06000e+00, -4.62500e-01, -5.45500e-02,  7.00500e-02,  1.78900e-02, -4.06300e-03, -2.33100e-03,  1.28400e-04],
                           [-9.86300e-01, -4.20500e-01, -1.45700e-01,  2.07400e-02,  1.70800e-02,  1.20200e-03, -1.12700e-03, -7.94700e-05],
                           [-3.15200e-01, -1.28500e-01, -1.04300e-01, -2.26100e-02,  9.10200e-04,  3.45100e-03,  1.19900e-03,  4.42300e-05],
                           [-3.69500e-02,  4.29700e-02, -2.52500e-02, -2.62500e-02, -9.68100e-03,  1.12900e-03,  1.58500e-03,  2.74600e-04],
                           [ 2.03000e-02,  7.92000e-02,  2.50100e-02, -9.50100e-03, -9.02100e-03, -1.23500e-03,  4.27200e-04,  1.70800e-04],
                           [ 1.37000e-02,  5.03400e-02,  3.70000e-02,  5.30900e-03, -3.20800e-03, -1.72900e-03, -5.45500e-04, -3.13000e-05],
                           [-1.83200e-02,  9.36200e-03,  2.26500e-02,  1.02700e-02,  1.89500e-03, -7.69200e-04, -7.79900e-04, -1.18700e-04]])

# Reaction 4
chebyshev_reaction('aadduct (+ M) <=> aQOOHb (+ M)',
                   Tmin=180.0, Tmax=1500.0,
                   Pmin=(0.01, 'atm'), Pmax=(98.692, 'atm'),
                   coeffs=[[-9.13300e+00,  1.07500e+00,  2.02600e-03, -5.43000e-02, -4.58700e-03,  3.35300e-03,  1.10600e-03, -2.80600e-04],
                           [ 1.67300e+00,  3.10600e+00,  1.88200e-01, -5.84900e-02, -1.69300e-03,  2.90900e-03,  1.16200e-03, -4.22400e-04],
                           [-3.49900e+00,  4.76900e-01,  9.11800e-02,  3.53000e-02,  5.71600e-03, -2.96600e-03, -7.72900e-04, -1.19900e-05],
                           [-2.20400e+00, -4.09500e-01, -7.30100e-02,  6.30100e-02,  1.87700e-02, -4.36400e-03, -2.24400e-03,  8.43700e-05],
                           [-1.01900e+00, -3.68700e-01, -1.49000e-01,  2.15400e-02,  1.73100e-02,  7.44700e-04, -9.88400e-04, -1.48400e-04],
                           [-3.20000e-01, -1.10300e-01, -1.11600e-01, -1.99100e-02,  1.31200e-03,  3.27000e-03,  1.34300e-03, -2.45800e-05],
                           [-2.97800e-02,  5.91800e-02, -3.24000e-02, -2.49800e-02, -1.00100e-02,  1.18700e-03,  1.73600e-03,  2.04400e-04],
                           [ 3.00100e-02,  9.66400e-02,  2.22600e-02, -7.97200e-03, -9.83800e-03, -1.20600e-03,  5.33200e-04,  1.24800e-04],
                           [ 1.68200e-02,  5.73400e-02,  3.58500e-02,  7.34900e-03, -3.84500e-03, -1.66600e-03, -5.30000e-04, -6.31000e-05],
                           [-6.82000e-03,  8.25400e-03,  2.05400e-02,  1.14400e-02,  1.49900e-03, -5.75800e-04, -8.03700e-04, -1.45200e-04]])

# Reaction 5
chebyshev_reaction('O2 + aR (+ M) <=> aQOOHb (+ M)',
                   Tmin=180.0, Tmax=1500.0,
                   Pmin=(0.01, 'atm'), Pmax=(98.692, 'atm'),
                   coeffs=[[ 4.31300e+00,  4.25400e+00, -9.30200e-01, -2.32100e-01,  8.83100e-02,  2.52300e-02, -1.64600e-02, -2.20500e-03],
                           [-1.68000e+00, -8.64000e-01,  1.29500e+00,  5.42300e-02, -1.67000e-01, -1.01300e-02,  2.73200e-02, -2.27300e-04],
                           [-1.60900e+00, -2.48200e-01,  1.38300e-01,  1.69500e-01,  3.47500e-03, -3.25200e-02, -2.20400e-03,  6.21100e-03],
                           [-1.02700e+00, -3.37100e-01, -6.83600e-02,  7.77300e-02,  2.77000e-02, -6.34500e-03, -6.65200e-03,  2.90000e-04],
                           [-4.90800e-01, -2.31600e-01, -1.01200e-01,  1.06200e-02,  2.06200e-02,  3.92700e-03, -3.62500e-03, -1.21600e-03],
                           [-1.61600e-01, -8.47700e-02, -7.14200e-02, -2.04700e-02,  1.01400e-02,  4.45400e-03, -5.73000e-04, -8.79900e-04],
                           [-2.09300e-02,  2.73800e-02, -3.14000e-02, -2.05800e-02, -2.55400e-04,  2.50900e-03,  9.23800e-04, -3.84600e-04],
                           [ 1.03500e-02,  6.04900e-02,  4.56600e-03, -9.55400e-03, -5.06200e-03,  6.63500e-04,  6.62500e-04,  1.98400e-05],
                           [-4.01200e-04,  4.35600e-02,  1.86300e-02,  2.09100e-03, -3.65200e-03, -9.86700e-04,  6.63700e-05,  1.86500e-04],
                           [-1.47700e-02,  9.03900e-03,  1.48000e-02,  6.13700e-03,  4.71300e-04, -1.15000e-03, -3.45200e-04,  6.40700e-05]])
#  aQOOHb(+M) <=> aQOOH[O](+M)                         1.000e+00 0.000     0.000
#      TCHEB/ 180.000   1500.000 /
#      PCHEB/ 0.010     98.692   /
#      CHEB/ 10 8/
#      CHEB/ -1.420e+01   3.375e+00    -8.217e-01   -3.009e-02   7.983e-02   /
#      CHEB/ -8.038e-03   -8.134e-03   3.001e-03    5.888e+00    1.192e+00   /
#      CHEB/ 7.588e-01    -4.314e-02   -7.437e-02   1.396e-02    5.366e-03   /
#      CHEB/ -3.913e-03   -3.489e+00   -2.665e-01   2.180e-01    9.050e-02   /
#      CHEB/ -3.964e-03   -3.567e-04   4.131e-04    -9.052e-04   -1.920e+00  /
#      CHEB/ -3.821e-01   -1.017e-01   2.604e-02    1.515e-02    -4.374e-03  /
#      CHEB/ 8.180e-04    9.365e-04    -8.188e-01   -2.238e-01   -9.025e-02  /
#      CHEB/ -3.486e-03   5.863e-03    2.641e-03    -1.016e-04   -2.975e-04  /
#      CHEB/ -3.066e-01   -4.383e-02   -7.077e-02   -2.144e-02   2.280e-03   /
#      CHEB/ 1.841e-03    8.433e-05    3.482e-04    -7.048e-02   3.961e-02   /
#      CHEB/ -2.181e-02   -1.791e-02   -3.580e-03   9.115e-04    5.025e-04   /
#      CHEB/ -1.290e-04   -8.003e-03   6.038e-02    8.309e-03    -9.747e-03  /
#      CHEB/ -4.194e-03   -5.607e-04   2.471e-04    1.894e-04    -2.521e-04  /
#      CHEB/ 3.262e-02    2.302e-02    3.014e-03    -3.477e-03   -1.226e-03  /
#      CHEB/ -1.509e-04   -2.083e-06   -2.306e-02   1.632e-02    1.244e-02   /
#      CHEB/ 7.316e-03    1.005e-03    -1.324e-03   -4.021e-04   7.226e-05   /

# Reaction 6
chebyshev_reaction('aQOOHg (+ M) <=> aQOOH[O] (+ M)',
                   Tmin=180.0, Tmax=1500.0,
                   Pmin=(0.01, 'atm'), Pmax=(98.692, 'atm'),
                   coeffs=[[-6.30300e+00,  3.73400e+00, -7.34000e-01, -4.49000e-02,  8.98500e-02, -1.24800e-02, -4.81800e-03,  1.49800e-03],
                           [-2.18500e+00, -6.76000e-02,  7.96900e-01, -8.87200e-02, -8.24300e-02,  3.68200e-02,  5.69500e-04, -4.69100e-03],
                           [-4.12200e+00, -6.13000e-01, -9.92700e-02,  1.53000e-01,  3.65300e-03, -2.50800e-02,  1.78200e-03,  3.45600e-03],
                           [-1.80200e+00, -2.90900e-01, -2.45100e-01, -6.26800e-03,  2.50700e-02,  2.80600e-03, -7.48700e-04, -1.15800e-03],
                           [-5.86800e-01,  7.59400e-02, -7.15000e-02, -4.84700e-02, -8.18400e-03,  5.48600e-03,  2.91600e-03, -4.16300e-04],
                           [-2.27900e-01,  1.07700e-01,  2.71500e-02, -5.06500e-03, -6.33200e-03, -3.90900e-03, -6.98200e-04,  1.22800e-03],
                           [-1.55600e-01,  2.89900e-02,  1.15800e-02,  6.39900e-03,  3.87900e-03, -2.68100e-04, -1.86600e-03, -3.46800e-04],
                           [-1.03600e-01, -8.88700e-03, -6.10300e-03, -2.74800e-03,  6.59800e-04,  2.10500e-03,  4.59900e-04, -5.45100e-04],
                           [-3.81800e-02,  5.15400e-03,  1.83700e-03, -2.82600e-03, -2.00800e-03, -4.47000e-04,  2.67000e-04,  3.07700e-04],
                           [-5.40600e-03,  2.76300e-02,  4.29100e-03,  2.32700e-03,  5.79300e-04, -8.95000e-04, -6.75200e-04,  2.44600e-06]])

# Reaction 7
chebyshev_reaction('aRO2 (+ M) <=> aQOOH[O] (+ M)',
                   Tmin=180.0, Tmax=1500.0,
                   Pmin=(0.01, 'atm'), Pmax=(98.692, 'atm'),
                   coeffs=[[-1.06500e+01,  5.21000e+00, -1.02300e+00, -1.60700e-01,  1.22500e-01,  1.22400e-02, -2.13100e-02,  1.36700e-03],
                           [ 8.21800e+00, -6.30800e-01,  9.37500e-01, -1.46000e-02, -1.31900e-01,  1.45500e-02,  2.37800e-02, -6.32800e-03],
                           [-3.20300e+00, -5.66400e-01,  7.83100e-02,  1.07400e-01, -1.00200e-02, -1.40500e-02,  1.34500e-03,  2.67200e-03],
                           [-1.63100e+00, -4.16600e-01, -9.50000e-02,  2.57400e-02,  1.60100e-02, -4.43200e-03, -1.35300e-03,  1.14700e-03],
                           [-7.24100e-01, -1.74700e-01, -7.99300e-02, -1.08400e-02,  4.72600e-03,  1.33000e-03, -4.60400e-04, -1.57800e-04],
                           [-2.93900e-01, -1.78200e-03, -3.65300e-02, -1.29000e-02, -1.49400e-03,  5.88800e-04,  2.70900e-05,  1.07100e-04],
                           [-9.76300e-02,  4.48800e-02,  8.76700e-04, -6.98200e-03, -2.68700e-03, -6.22600e-05,  4.91400e-06,  5.71000e-06],
                           [-2.59900e-02,  4.34800e-02,  1.13600e-02,  7.59500e-05, -1.10900e-03, -8.66200e-04,  1.73200e-05,  1.86500e-05],
                           [-2.99200e-04,  1.40700e-02,  1.21500e-02,  4.26300e-03, -1.14200e-04, -4.30100e-04, -2.49100e-04, -1.38000e-06],
                           [-1.09300e-02,  8.89900e-03,  4.34900e-03,  3.13700e-03,  1.28400e-03, -4.75100e-05, -1.12200e-04, -5.10000e-05]])

# Reaction 8
chebyshev_reaction('aadduct (+ M) <=> aQOOH[O] (+ M)',
                   Tmin=180.0, Tmax=1500.0,
                   Pmin=(0.01, 'atm'), Pmax=(98.692, 'atm'),
                   coeffs=[[-1.44000e+01,  4.58400e+00, -9.66500e-01, -1.59700e-01,  1.22800e-01,  1.22300e-02, -2.14100e-02,  1.39100e-03],
                           [ 8.66800e+00, -2.46000e-01,  8.89700e-01, -1.25300e-02, -1.30900e-01,  1.43900e-02,  2.36300e-02, -6.29200e-03],
                           [-3.45400e+00, -4.22300e-01,  5.43100e-02,  1.06800e-01, -8.45500e-03, -1.42100e-02,  1.19900e-03,  2.69900e-03],
                           [-1.78000e+00, -3.61100e-01, -1.09100e-01,  2.37300e-02,  1.74300e-02, -4.46200e-03, -1.49000e-03,  1.16000e-03],
                           [-7.71300e-01, -1.56500e-01, -8.81700e-02, -1.34100e-02,  5.46300e-03,  1.47800e-03, -5.58700e-04, -1.62400e-04],
                           [-2.87600e-01,  7.70800e-03, -3.95400e-02, -1.48400e-02, -1.47900e-03,  8.06400e-04, -2.46300e-05,  9.11800e-05],
                           [-7.86200e-02,  5.30800e-02,  1.70600e-03, -7.78600e-03, -2.96000e-03,  9.61100e-05,  2.25000e-06, -1.88600e-05],
                           [-1.27500e-02,  4.72700e-02,  1.37300e-02,  4.80000e-05, -1.34800e-03, -7.80200e-04,  4.82600e-05, -7.69800e-06],
                           [ 9.33500e-03,  1.19700e-02,  1.36200e-02,  4.47200e-03, -3.11300e-04, -3.61700e-04, -2.15100e-04, -1.65600e-05],
                           [-3.11700e-04,  2.11900e-03,  4.49400e-03,  3.12900e-03,  1.11100e-03,  4.99100e-07, -8.24900e-05, -5.53400e-05]])

# Reaction 9
chebyshev_reaction('O2 + aR (+ M) <=> aQOOH[O] (+ M)',
                   Tmin=180.0, Tmax=1500.0,
                   Pmin=(0.01, 'atm'), Pmax=(98.692, 'atm'),
                   coeffs=[[ 2.56900e+00,  4.70200e+00, -3.43800e-01, -2.87200e-01,  9.51200e-03,  3.40100e-02, -1.46800e-03, -5.54400e-03],
                           [-2.78000e+00, -9.43700e-01,  8.90300e-01,  2.46800e-01, -8.55400e-02, -4.45100e-02,  1.04000e-02,  8.34100e-03],
                           [-1.43400e+00, -5.19100e-01,  1.48900e-02,  1.11800e-01,  2.33900e-02, -1.30600e-02, -7.45700e-03,  1.20600e-03],
                           [-7.04700e-01, -2.46600e-01, -8.53700e-02,  2.24600e-02,  1.95800e-02, -2.44900e-04, -3.07200e-03, -9.35900e-04],
                           [-3.28100e-01, -7.19900e-02, -5.48500e-02, -7.39100e-03,  8.23300e-03,  1.95900e-03, -7.83000e-04, -1.84800e-04],
                           [-1.44700e-01, -7.35400e-03, -1.54500e-02, -8.05700e-03,  8.18100e-04,  1.22400e-03, -3.28300e-04, -6.56100e-05],
                           [-6.16000e-02, -1.10900e-04, -7.15500e-03, -3.20700e-03, -6.82100e-05,  3.76400e-04, -2.78500e-04, -1.59800e-04],
                           [-2.39400e-02,  1.26200e-04, -1.42700e-03, -1.44900e-03, -1.86400e-04,  3.10600e-04, -1.44000e-04, -2.75900e-04],
                           [-8.37100e-03, -2.69500e-03, -4.46800e-03, -5.48300e-04,  5.93400e-04,  2.16900e-04, -3.40200e-05, -1.33200e-04],
                           [-5.13100e-03,  1.65000e-03,  1.96000e-03, -2.67600e-05, -7.84700e-05,  2.72300e-04,  1.05500e-04, -8.72200e-05]])
#  aQOOHb(+M) <=> aQOOHg(+M)                           1.000e+00 0.000     0.000
#      TCHEB/ 180.000   1500.000 /
#      PCHEB/ 0.010     98.692   /
#      CHEB/ 10 8/
#      CHEB/ -1.283e+01   2.345e+00    -4.389e-01   -6.298e-02   1.340e-02   /
#      CHEB/ 7.933e-03    -1.822e-03   -6.948e-04   5.880e-02    2.703e+00   /
#      CHEB/ 4.436e-01    -7.571e-02   -3.957e-02   4.976e-03    5.166e-03   /
#      CHEB/ -8.557e-04   -3.953e+00   -4.668e-01   1.381e-01    1.369e-01   /
#      CHEB/ 9.755e-03    -1.858e-02   -2.813e-03   2.448e-03    -1.928e+00  /
#      CHEB/ -6.727e-01   -1.329e-01   3.669e-02    3.155e-02    3.920e-03   /
#      CHEB/ -3.817e-03   -1.379e-03   -6.941e-01   -2.483e-01   -9.879e-02  /
#      CHEB/ -2.702e-02   2.433e-03    7.557e-03    2.645e-03    -8.112e-04  /
#      CHEB/ -2.167e-01   -5.929e-02   -3.681e-02   -1.500e-02   -4.607e-03  /
#      CHEB/ 1.608e-04    1.193e-03    6.974e-04    -1.119e-01   2.844e-02   /
#      CHEB/ -2.651e-02   -1.333e-02   9.492e-04    1.158e-03    -7.512e-04  /
#      CHEB/ -2.404e-04   -6.962e-02   5.311e-02    -4.275e-03   -1.253e-02  /
#      CHEB/ -3.527e-03   1.077e-03    6.376e-04    -1.978e-04   -2.764e-02  /
#      CHEB/ 4.888e-02    2.080e-02    1.073e-03    -5.471e-03   -2.371e-03  /
#      CHEB/ 4.022e-04    4.883e-04    -7.845e-03   3.054e-02    2.072e-02   /
#      CHEB/ 9.350e-03    7.858e-04    -2.128e-03   -1.042e-03   4.173e-05   /
#  aQOOH[O](+M) <=> aQOOHg(+M)                         1.000e+00 0.000     0.000
#      TCHEB/ 180.000   1500.000 /
#      PCHEB/ 0.010     98.692   /
#      CHEB/ 10 8/
#      CHEB/ -3.761e+00   3.734e+00    -7.340e-01   -4.490e-02   8.985e-02   /
#      CHEB/ -1.248e-02   -4.818e-03   1.498e-03    -4.032e+00   -6.760e-02  /
#      CHEB/ 7.969e-01    -8.872e-02   -8.243e-02   3.682e-02    5.695e-04   /
#      CHEB/ -4.691e-03   -3.977e+00   -6.130e-01   -9.927e-02   1.530e-01   /
#      CHEB/ 3.653e-03    -2.508e-02   1.782e-03    3.456e-03    -1.754e+00  /
#      CHEB/ -2.909e-01   -2.451e-01   -6.268e-03   2.507e-02    2.806e-03   /
#      CHEB/ -7.487e-04   -1.158e-03   -5.740e-01   7.594e-02    -7.150e-02  /
#      CHEB/ -4.847e-02   -8.184e-03   5.486e-03    2.916e-03    -4.163e-04  /