units(length='cm', time='s', quantity='mol', act_energy='kcal/mol')

ideal_gas(name='gas',
          elements="H D T C Ci O Oi N Ne Ar He Si S F Cl Br I X",
          species="""propene3ol       OH               disub_c4ether
                     H2O              disub_epoxy      gQOOHa
                     propene1ol       gQOOHb           ipropylOOH
                     galdoxy          galkene          CH2O
                     O2               gRO2             gQOOHg
                     gR               galdol           monosub_c4ether
                     HO2              gQOOH[O]""",
          reactions='all',
          initial_state=state(temperature=300.0, pressure=OneAtm))

#-------------------------------------------------------------------------------
# Element data
#-------------------------------------------------------------------------------

element(symbol='Ci', atomic_mass=13.003)
element(symbol='D', atomic_mass=2.014)
element(symbol='Oi', atomic_mass=18.0)
element(symbol='T', atomic_mass=3.016)
element(symbol='X', atomic_mass=195.083)
#-------------------------------------------------------------------------------
# Species data
#-------------------------------------------------------------------------------

species(name='propene3ol',
        atoms='C:3 H:6 O:1',
        thermo=(NASA([10.00, 444.81],
                     [ 3.92769709E+00,  4.89977303E-03,  1.13094874E-04,
                      -2.59008187E-07,  1.86205760E-10, -1.60807618E+04,
                       9.90805416E+00]),
                NASA([444.81, 3000.00],
                     [ 2.61720343E+00,  3.01777872E-02, -1.76511625E-05,
                       5.14864061E-09, -5.91153761E-13, -1.60976623E+04,
                       1.36683107E+01])))

species(name='OH',
        atoms='H:1 O:1',
        thermo=(NASA([10.00, 984.14],
                     [ 3.49686242E+00,  1.83973160E-04, -9.97634499E-07,
                       1.56942783E-09, -6.10128175E-13,  3.41673934E+03,
                       1.48093120E+00]),
                NASA([984.14, 3000.00],
                     [ 3.45221464E+00, -2.95124034E-04,  7.39418622E-07,
                      -2.89309866E-10,  3.53041498E-14,  3.45751599E+03,
                       1.85813897E+00])))

species(name='disub_c4ether',
        atoms='C:4 H:8 O:2',
        thermo=(NASA([10.00, 413.50],
                     [ 3.78241323E+00,  1.89501763E-02,  8.65302396E-05,
                      -1.80580575E-07,  1.13656264E-10, -3.91317655E+04,
                       1.09982450E+01]),
                NASA([413.50, 3000.00],
                     [ 4.29420885E-01,  5.13851903E-02, -3.11292293E-05,
                       9.11498284E-09, -1.03192718E-12, -3.88544711E+04,
                       2.42134976E+01])))

species(name='H2O',
        atoms='H:2 O:1',
        thermo=(NASA([10.00, 773.84],
                     [ 4.00473541E+00, -2.39729134E-04,  8.11862955E-07,
                       1.47891862E-09, -1.19783539E-12, -3.03533807E+04,
                      -9.96254147E-02]),
                NASA([773.84, 3000.00],
                     [ 3.52133374E+00,  1.05377009E-03,  6.40722099E-07,
                      -3.86240235E-10,  5.49243294E-14, -3.02424794E+04,
                       2.34173094E+00])))

species(name='disub_epoxy',
        atoms='C:4 H:8 O:2',
        thermo=(NASA([10.00, 549.41],
                     [ 3.89863211E+00,  5.97532637E-03,  1.66685676E-04,
                      -3.10743768E-07,  1.78330192E-10, -3.66065411E+04,
                       1.13847308E+01]),
                NASA([549.41, 3000.00],
                     [-6.40277648E-01,  6.05960003E-02, -4.13427220E-05,
                       1.31555461E-08, -1.57685017E-12, -3.64334242E+04,
                       2.76005436E+01])))

species(name='gQOOHa',
        atoms='C:4 H:9 O:3',
        thermo=(NASA([10.00, 160.74],
                     [ 3.80808147E+00,  2.31043884E-02,  5.26945984E-04,
                      -3.11500696E-06,  6.03881958E-09, -2.39764466E+04,
                       1.17645316E+01]),
                NASA([160.74, 3000.00],
                     [ 2.90630300E+00,  6.50241173E-02, -4.60073244E-05,
                       1.51330930E-08, -1.87074267E-12, -2.39726221E+04,
                       1.36838819E+01])))

species(name='propene1ol',
        atoms='C:3 H:6 O:1',
        thermo=(NASA([10.00, 459.42],
                     [ 3.91245344E+00,  5.85800161E-03,  1.15412006E-04,
                      -2.68014417E-07,  1.91800131E-10, -1.99004752E+04,
                       8.14807684E+00]),
                NASA([459.42, 3000.00],
                     [ 3.14049093E+00,  2.95550898E-02, -1.73843684E-05,
                       5.11506211E-09, -5.92966137E-13, -2.00086977E+04,
                       9.32215170E+00])))

species(name='gQOOHb',
        atoms='C:4 H:9 O:3',
        thermo=(NASA([10.00, 1018.67],
                     [ 3.99028351E+00,  4.29665712E-02,  2.28338778E-05,
                      -5.67914439E-08,  2.29383258E-11, -2.43366288E+04,
                       1.20326731E+01]),
                NASA([1018.67, 3000.00],
                     [ 1.38304153E+01,  3.88527019E-02, -2.19473905E-05,
                       5.78719895E-09, -5.85097740E-13, -2.81327135E+04,
                      -4.44147388E+01])))

species(name='ipropylOOH',
        atoms='C:3 H:7 O:2',
        thermo=(NASA([10.00, 405.01],
                     [ 3.30075623E+00,  7.58672756E-02, -3.35754269E-04,
                       8.05972164E-07, -6.68864582E-10, -5.78592880E+02,
                       1.43372849E+01]),
                NASA([405.01, 3000.00],
                     [ 2.51742509E+00,  3.72760950E-02, -2.12450220E-05,
                       5.83593926E-09, -6.22110649E-13, -1.35185274E+02,
                       2.20991392E+01])))

species(name='galdoxy',
        atoms='C:4 H:7 O:2',
        thermo=(NASA([10.00, 209.62],
                     [ 3.82641108E+00,  1.84758886E-02,  3.43073800E-04,
                      -1.82817005E-06,  2.98516720E-09, -1.64183103E+04,
                       1.17972706E+01]),
                NASA([209.62, 3000.00],
                     [ 4.22049016E+00,  4.03370149E-02, -2.36129482E-05,
                       6.72979114E-09, -7.47862493E-13, -1.64993800E+04,
                       8.97211724E+00])))

species(name='galkene',
        atoms='C:4 H:8 O:1',
        thermo=(NASA([10.00, 383.47],
                     [ 3.84035604E+00,  1.20378740E-02,  1.87486319E-04,
                      -5.44759148E-07,  4.80711015E-10, -1.93183985E+04,
                       1.02570291E+01]),
                NASA([383.47, 3000.00],
                     [ 4.00413385E+00,  3.79025144E-02, -2.15435710E-05,
                       6.15213311E-09, -6.97446345E-13, -1.95336879E+04,
                       6.98052628E+00])))

species(name='CH2O',
        atoms='C:1 H:2 O:1',
        thermo=(NASA([10.00, 601.31],
                     [ 4.03190845E+00, -1.93233367E-03,  8.89743345E-06,
                       2.98105926E-09, -7.90813886E-12, -1.42276270E+04,
                       3.47574660E+00]),
                NASA([601.31, 3000.00],
                     [ 1.40134195E+00,  9.48858016E-03, -4.43088317E-06,
                       9.48452194E-10, -7.43790219E-14, -1.38013869E+04,
                       1.57423780E+01])))

species(name='O2',
        atoms='O:2',
        thermo=(NASA([10.00, 605.96],
                     [ 3.50743498E+00, -4.43860349E-04,  1.45938058E-06,
                       1.61509333E-09, -2.32050052E-12, -9.24756224E+02,
                       4.72183634E+00]),
                NASA([605.96, 3000.00],
                     [ 2.87462882E+00,  2.17840991E-03, -1.18262921E-06,
                       2.86910493E-10, -2.53297146E-14, -8.19517838E+02,
                       7.69331810E+00])))

species(name='gRO2',
        atoms='C:4 H:9 O:3',
        thermo=(NASA([10.00, 177.33],
                     [ 3.70632176E+00,  3.49733664E-02,  4.64036392E-04,
                      -3.18637835E-06,  6.38178607E-09, -2.80012472E+04,
                       1.24459269E+01]),
                NASA([177.33, 3000.00],
                     [ 4.82062697E+00,  5.17179689E-02, -3.18386818E-05,
                       9.52247045E-09, -1.10180288E-12, -2.81066177E+04,
                       7.14082953E+00])))

species(name='gQOOHg',
        atoms='C:4 H:9 O:3',
        thermo=(NASA([10.00, 475.03],
                     [ 3.42273720E+00,  4.98344215E-02,  6.47820920E-05,
                      -2.49842966E-07,  1.98636537E-10, -2.26036227E+04,
                       1.41578583E+01]),
                NASA([475.03, 3000.00],
                     [ 5.94049074E+00,  5.53778585E-02, -3.71708255E-05,
                       1.17540477E-08, -1.40812095E-12, -2.31445770E+04,
                       7.09201218E-01])))

species(name='gR',
        atoms='C:4 H:9 O:1',
        thermo=(NASA([10.00, 638.24],
                     [ 3.37074633E+00,  5.17529751E-02, -6.54872940E-05,
                       6.88084237E-08, -3.21569794E-11, -1.01206195E+04,
                       1.14339669E+01]),
                NASA([638.24, 3000.00],
                     [ 3.99410860E+00,  4.06314915E-02, -2.23932510E-05,
                       6.08356263E-09, -6.49884708E-13, -1.00532448E+04,
                       9.85769960E+00])))

species(name='galdol',
        atoms='C:4 H:8 O:2',
        thermo=(NASA([10.00, 506.68],
                     [ 3.85380874E+00,  9.21272695E-03,  1.86712348E-04,
                      -3.96417049E-07,  2.55528268E-10, -4.60818291E+04,
                       1.24312743E+01]),
                NASA([506.68, 3000.00],
                     [ 1.49710213E+00,  5.65979142E-02, -3.87709084E-05,
                       1.23682052E-08, -1.48287964E-12, -4.62124385E+04,
                       1.85531759E+01])))

species(name='monosub_c4ether',
        atoms='C:4 H:8 O:2',
        thermo=(NASA([10.00, 380.36],
                     [ 3.47743996E+00,  6.08051311E-02, -2.78518945E-04,
                       8.23182713E-07, -7.87158031E-10, -3.24270305E+04,
                       1.06415154E+01]),
                NASA([380.36, 3000.00],
                     [-1.09346901E+00,  5.35985968E-02, -3.21081420E-05,
                       9.20818293E-09, -1.01830294E-12, -3.16794705E+04,
                       3.35312368E+01])))

species(name='HO2',
        atoms='H:1 O:2',
        thermo=(NASA([10.00, 891.11],
                     [ 4.02887004E+00, -1.75769289E-03,  1.08726004E-05,
                      -1.13812972E-08,  3.90113097E-12,  4.95165001E+02,
                       4.69302008E+00]),
                NASA([891.11, 3000.00],
                     [ 3.06571044E+00,  4.28505005E-03, -2.19325920E-06,
                       5.58882699E-10, -5.61246669E-14,  5.98557610E+02,
                       8.84564156E+00])))

species(name='gQOOH[O]',
        atoms='C:4 H:9 O:3',
        thermo=(NASA([10.00, 535.23],
                     [ 3.83107445E+00,  1.02302002E-02,  2.29377261E-04,
                      -4.59095575E-07,  2.77765018E-10, -2.03934579E+04,
                       1.41034859E+01]),
                NASA([535.23, 3000.00],
                     [-4.19283096E-01,  7.69784620E-02, -5.57279000E-05,
                       1.81378295E-08, -2.18295635E-12, -2.04395713E+04,
                       2.72711816E+01])))

#-------------------------------------------------------------------------------
# Reaction data
#-------------------------------------------------------------------------------

# Reaction 1
chebyshev_reaction('gQOOH[O] (+ M) <=> gRO2 (+ M)',
                   Tmin=180.0, Tmax=1500.0,
                   Pmin=(0.01, 'atm'), Pmax=(98.692, 'atm'),
                   coeffs=[[ 4.21300e+00,  7.34300e-01, -4.25000e-02,  2.10200e-02, -2.63500e-03, -1.02600e-03,  1.65600e-04, -7.78800e-05],
                           [-2.83200e+00,  1.07700e+00,  1.32100e-02,  1.54600e-02, -1.59300e-03, -1.57100e-03,  1.43400e-04, -2.05400e-04],
                           [-3.43400e+00,  3.95800e-01,  1.16000e-01, -2.00200e-03, -3.87700e-03,  9.97700e-04, -3.41800e-04, -2.73400e-04],
                           [-2.28000e+00, -3.62700e-03,  9.58500e-02,  5.69100e-03, -5.15200e-03,  8.17200e-04, -1.69300e-04, -1.88300e-04],
                           [-1.16300e+00, -5.92200e-02,  2.76000e-02,  1.08000e-02, -8.85700e-04, -1.16200e-03, -1.10900e-04,  1.47600e-04],
                           [-5.03900e-01, -3.07400e-03,  1.32600e-03,  6.70400e-03,  2.23500e-03, -1.67300e-03, -3.51000e-04,  3.38600e-04],
                           [-2.16800e-01,  2.14100e-03,  1.25500e-02,  6.10000e-03,  1.18000e-03, -1.03600e-03, -2.76500e-04,  2.28100e-04],
                           [-1.25100e-01, -4.84000e-02,  1.64900e-02,  1.13900e-02,  8.31300e-05, -7.10200e-04,  5.32400e-05,  7.06300e-05],
                           [-7.06100e-02, -9.27200e-02, -3.01200e-03,  1.34200e-02,  1.74400e-03, -4.99100e-04,  1.46200e-04, -2.29700e-06],
                           [-4.34900e-02, -9.05200e-02, -2.88000e-02,  7.14800e-03,  4.19600e-03,  3.08400e-04, -6.47100e-05, -8.70700e-05]])

# Reaction 2
chebyshev_reaction('gQOOHa (+ M) <=> gRO2 (+ M)',
                   Tmin=180.0, Tmax=1500.0,
                   Pmin=(0.01, 'atm'), Pmax=(98.692, 'atm'),
                   coeffs=[[ 3.97100e+00,  8.68100e-01, -3.48000e-02,  1.44800e-02, -1.80000e-03, -6.31700e-04, -1.20300e-04, -5.73100e-05],
                           [-2.52900e+00,  1.28700e+00,  2.60100e-02,  7.62800e-03,  2.24100e-04, -1.65700e-03, -1.50700e-04, -9.50600e-05],
                           [-3.55400e+00,  4.56100e-01,  1.27000e-01,  3.55800e-04, -2.32300e-03, -2.53200e-04, -2.83000e-04, -2.50400e-05],
                           [-2.11900e+00, -7.66000e-02,  9.68300e-02,  1.72000e-02, -4.88200e-03, -5.35500e-04,  6.25000e-05,  1.26600e-05],
                           [-1.05600e+00, -1.57500e-01,  1.04200e-02,  2.24600e-02, -8.50300e-04, -2.01100e-03,  1.10700e-04,  1.81600e-04],
                           [-4.37600e-01, -4.49700e-02, -1.96000e-02,  8.31600e-03,  2.71400e-03, -1.81200e-03, -3.14500e-04,  2.93600e-04],
                           [-2.21600e-01,  1.42400e-02,  8.07300e-03, -6.03600e-06,  1.56300e-04, -6.79100e-04, -3.11100e-04,  2.13000e-04],
                           [-1.22600e-01, -2.77600e-02,  2.91500e-02,  8.31800e-03, -2.59400e-03, -9.05800e-04,  1.78000e-04,  1.56600e-04],
                           [-7.84300e-02, -8.87400e-02,  8.71300e-03,  1.84400e-02,  4.55300e-04, -1.61900e-03,  2.23700e-04,  1.78800e-04],
                           [-3.05100e-02, -9.85900e-02, -2.98400e-02,  1.39700e-02,  6.44200e-03, -6.05600e-04, -3.65900e-04,  1.88100e-05]])

# Reaction 3
chebyshev_reaction('gQOOHg (+ M) <=> gRO2 (+ M)',
                   Tmin=180.0, Tmax=1500.0,
                   Pmin=(0.01, 'atm'), Pmax=(98.692, 'atm'),
                   coeffs=[[ 3.19600e+00,  7.60900e-01, -2.66300e-02, -9.44400e-05, -4.11100e-04,  4.28300e-04, -7.58100e-05, -1.91800e-04],
                           [ 1.39800e-01,  1.28200e+00, -3.35600e-03, -6.59700e-03, -5.56300e-04,  7.75500e-04, -1.34800e-04, -3.27200e-04],
                           [-2.50900e+00,  7.27800e-01,  8.84000e-02, -1.21000e-02, -1.79800e-03,  7.05800e-04, -7.59800e-05, -1.75800e-04],
                           [-1.99800e+00,  1.84700e-01,  1.27400e-01, -1.38200e-03, -4.73200e-03,  2.45400e-04,  1.28500e-04,  1.34100e-05],
                           [-1.24300e+00, -1.35800e-01,  8.95600e-02,  1.69300e-02, -5.25700e-03, -9.82300e-04,  3.71600e-04,  2.07800e-04],
                           [-6.46300e-01, -2.24300e-01,  2.27500e-02,  2.42600e-02, -1.59100e-03, -2.04600e-03,  3.37000e-04,  3.54500e-04],
                           [-2.86000e-01, -1.81700e-01, -2.14200e-02,  1.63500e-02,  2.60100e-03, -1.72100e-03,  2.34600e-05,  3.38000e-04],
                           [-9.79700e-02, -1.06900e-01, -2.96200e-02,  4.06100e-03,  3.33200e-03, -3.21400e-04, -1.71700e-04,  1.26700e-04],
                           [-2.25600e-02, -5.06000e-02, -1.83300e-02, -1.84300e-03,  1.06400e-03,  6.50000e-04, -3.44700e-05, -1.13000e-04],
                           [ 2.25100e-02, -2.21200e-02, -7.85200e-03, -1.97800e-04, -7.37100e-04,  3.94200e-04,  1.51200e-04, -1.77400e-04]])

# Reaction 4
chebyshev_reaction('gQOOHb (+ M) <=> gRO2 (+ M)',
                   Tmin=180.0, Tmax=1500.0,
                   Pmin=(0.01, 'atm'), Pmax=(98.692, 'atm'),
                   coeffs=[[-4.83200e+00,  1.77200e+00,  8.53900e-02, -3.56700e-02, -1.27200e-02,  9.85800e-04,  1.26400e-03,  6.90300e-05],
                           [ 1.77700e+00,  2.31600e+00,  1.99800e-01, -3.92600e-02, -1.56800e-02,  1.04000e-03,  1.30900e-03, -1.24900e-04],
                           [-2.32100e+00,  4.54100e-01,  1.01400e-01,  2.83700e-02,  2.52700e-03, -5.55300e-04, -8.81500e-04, -4.53100e-04],
                           [-1.67100e+00, -2.83800e-01, -1.47500e-02,  3.91800e-02,  1.02900e-02, -8.16700e-04, -1.55600e-03, -2.99500e-04],
                           [-9.00100e-01, -2.15000e-01, -9.12500e-03,  1.75700e-02,  1.57900e-03, -1.54000e-03, -5.44800e-04,  2.65700e-04],
                           [-4.45200e-01, -9.79700e-02,  3.21800e-02,  1.18700e-02, -4.93100e-03, -2.64900e-03,  1.31700e-04,  5.45300e-04],
                           [-2.32900e-01, -9.62300e-02,  3.16500e-02,  1.48300e-02, -2.17000e-03, -1.88100e-03,  7.40600e-05,  2.85600e-04],
                           [-1.23100e-01, -1.04400e-01,  6.90900e-03,  1.35300e-02,  2.00400e-03, -3.68600e-04, -3.82000e-05, -1.19800e-05],
                           [-4.63400e-02, -9.12200e-02, -1.31200e-02,  8.37100e-03,  3.95300e-03,  4.00800e-04, -1.43200e-04, -1.13700e-04],
                           [-5.59300e-03, -6.30100e-02, -2.71600e-02,  2.38000e-03,  4.52600e-03,  8.75800e-04, -2.43300e-04, -1.75600e-04]])

# Reaction 5
chebyshev_reaction('O2 + gR (+ M) <=> gRO2 (+ M)',
                   Tmin=180.0, Tmax=1500.0,
                   Pmin=(0.01, 'atm'), Pmax=(98.692, 'atm'),
                   coeffs=[[ 9.46900e+00,  6.08200e-01, -1.25300e-01,  2.42100e-02, -3.58300e-03,  6.61200e-04, -1.93300e-04, -4.13000e-05],
                           [-2.01600e+00,  1.03300e+00, -1.61400e-01,  1.28400e-02,  4.77200e-03, -2.13500e-03,  4.26900e-04, -2.18500e-04],
                           [-1.35000e+00,  7.18300e-01, -4.22400e-02, -1.89600e-02,  9.60400e-03, -1.98100e-03, -1.33000e-05,  2.96700e-05],
                           [-9.49300e-01,  4.02900e-01,  4.41400e-02, -2.85600e-02,  5.86900e-03,  8.85700e-05, -5.48000e-04,  1.79600e-04],
                           [-6.49300e-01,  1.59000e-01,  7.87600e-02, -1.93200e-02, -8.68800e-04,  1.41300e-03, -4.09300e-04,  1.20700e-04],
                           [-4.17400e-01,  1.08000e-03,  7.38900e-02, -3.97200e-03, -5.12700e-03,  1.02700e-03,  1.88600e-04,  5.10000e-05],
                           [-2.44600e-01, -8.19500e-02,  4.88100e-02,  8.02500e-03, -5.43800e-03, -2.14000e-04,  6.47100e-04,  9.72000e-05],
                           [-1.23300e-01, -1.09000e-01,  1.89800e-02,  1.31400e-02, -3.08600e-03, -1.14300e-03,  6.74300e-04,  1.88200e-04],
                           [-4.58000e-02, -9.90300e-02, -6.27500e-03,  1.20000e-02,  3.52300e-06, -1.21200e-03,  3.68200e-04,  1.99600e-04],
                           [-2.61300e-03, -6.94100e-02, -2.24100e-02,  6.91800e-03,  2.48400e-03, -5.52200e-04, -2.39600e-05,  8.99300e-05]])
#  gRO2(+M) <=> gQOOH[O](+M)                           1.000e+00 0.000     0.000
#      TCHEB/ 180.000   1500.000 /
#      PCHEB/ 0.010     98.692   /
#      CHEB/ 10 8/
#      CHEB/ -6.552e+00   7.343e-01    -4.250e-02   2.102e-02    -2.635e-03  /
#      CHEB/ -1.026e-03   1.656e-04    -7.788e-05   4.981e+00    1.077e+00   /
#      CHEB/ 1.321e-02    1.546e-02    -1.593e-03   -1.571e-03   1.434e-04   /
#      CHEB/ -2.054e-04   -3.261e+00   3.958e-01    1.160e-01    -2.002e-03  /
#      CHEB/ -3.877e-03   9.977e-04    -3.418e-04   -2.734e-04   -2.155e+00  /
#      CHEB/ -3.627e-03   9.585e-02    5.691e-03    -5.152e-03   8.172e-04   /
#      CHEB/ -1.693e-04   -1.883e-04   -1.109e+00   -5.922e-02   2.760e-02   /
#      CHEB/ 1.080e-02    -8.857e-04   -1.162e-03   -1.109e-04   1.476e-04   /
#      CHEB/ -4.848e-01   -3.074e-03   1.326e-03    6.704e-03    2.235e-03   /
#      CHEB/ -1.673e-03   -3.510e-04   3.386e-04    -2.106e-01   2.141e-03   /
#      CHEB/ 1.255e-02    6.100e-03    1.180e-03    -1.036e-03   -2.765e-04  /
#      CHEB/ 2.281e-04    -1.232e-01   -4.840e-02   1.649e-02    1.139e-02   /
#      CHEB/ 8.313e-05    -7.102e-04   5.324e-05    7.063e-05    -7.015e-02  /
#      CHEB/ -9.272e-02   -3.012e-03   1.342e-02    1.744e-03    -4.991e-04  /
#      CHEB/ 1.462e-04    -2.297e-06   -4.352e-02   -9.052e-02   -2.880e-02  /
#      CHEB/ 7.148e-03    4.196e-03    3.084e-04    -6.471e-05   -8.707e-05  /

# Reaction 6
chebyshev_reaction('gQOOHa (+ M) <=> gQOOH[O] (+ M)',
                   Tmin=180.0, Tmax=1500.0,
                   Pmin=(0.01, 'atm'), Pmax=(98.692, 'atm'),
                   coeffs=[[-6.25800e+00, -1.95100e-01, -2.15200e-01,  5.85000e-02, -4.52800e-03, -3.29600e-03,  7.29000e-04,  2.41900e-05],
                           [-2.92300e-02,  2.07700e+00,  7.15700e-02, -1.78800e-02,  7.52800e-03, -2.40700e-03, -4.92900e-04,  8.60800e-05],
                           [-4.54300e+00,  2.97100e-01,  2.95000e-01, -8.47700e-03, -1.59900e-02,  5.02600e-03,  2.03800e-05, -7.71100e-04],
                           [-2.63800e+00, -3.44300e-01,  1.16400e-01,  3.59500e-02, -1.12300e-02, -7.12400e-04,  1.09400e-03, -2.13000e-04],
                           [-1.03700e+00, -1.94900e-01, -5.68400e-02,  2.18900e-02,  5.55000e-03, -3.30800e-03, -2.85700e-04,  5.01900e-04],
                           [-2.93500e-01,  7.64500e-02, -5.70900e-02, -9.78000e-03,  6.69600e-03, -8.59800e-04, -9.48400e-04,  3.53600e-04],
                           [-1.06700e-01,  1.43900e-01,  2.44900e-02, -1.19600e-02, -2.25300e-03,  1.50700e-04, -1.72500e-04,  1.12500e-04],
                           [-1.20100e-01,  2.70800e-02,  6.36200e-02,  1.11300e-02, -6.16300e-03, -1.34400e-03,  5.43500e-04,  1.59900e-04],
                           [-1.25600e-01, -1.09300e-01,  2.77800e-02,  2.76600e-02, -2.54600e-04, -2.41500e-03,  3.61600e-04,  2.35300e-04],
                           [-8.40000e-02, -1.46700e-01, -3.44100e-02,  1.98600e-02,  7.87800e-03, -7.61000e-04, -4.18500e-04,  3.84900e-05]])

# Reaction 7
chebyshev_reaction('gQOOHg (+ M) <=> gQOOH[O] (+ M)',
                   Tmin=180.0, Tmax=1500.0,
                   Pmin=(0.01, 'atm'), Pmax=(98.692, 'atm'),
                   coeffs=[[-5.90300e+00, -3.78300e-01, -1.62700e-01,  3.61800e-02, -4.03400e-03, -1.70700e-03,  8.30300e-04, -1.93800e-04],
                           [ 1.50800e+00,  2.11300e+00,  2.12500e-02, -1.80100e-02,  3.07600e-03,  1.87800e-04, -3.35900e-04, -2.14000e-04],
                           [-3.64800e+00,  5.96900e-01,  2.46500e-01, -3.33500e-02, -6.51800e-03,  5.15300e-03, -9.30100e-04, -4.73900e-04],
                           [-2.43000e+00, -1.00100e-01,  1.50500e-01,  6.25800e-03, -8.56000e-03,  1.65700e-03,  3.05400e-04, -1.85500e-04],
                           [-1.14800e+00, -1.93900e-01,  2.41200e-02,  1.79500e-02, -2.32000e-03, -1.66700e-03,  4.75700e-04,  3.27000e-04],
                           [-4.61000e-01, -1.03800e-01, -1.60600e-02,  1.08300e-02,  1.02700e-03, -2.09300e-03,  7.45800e-05,  4.84800e-04],
                           [-1.84100e-01, -3.94500e-02, -7.15700e-03,  5.79200e-03,  1.67400e-03, -1.37000e-03, -2.36100e-04,  3.51100e-04],
                           [-1.03800e-01, -4.03200e-02,  4.23100e-03,  5.25100e-03,  1.32300e-03, -2.59400e-04, -2.00000e-04,  5.82900e-05],
                           [-7.64800e-02, -6.44100e-02,  6.38500e-04,  5.79100e-03,  5.99600e-04,  4.20400e-04,  1.30200e-04, -1.57200e-04],
                           [-4.28300e-02, -6.99300e-02, -1.15400e-02,  4.67500e-03,  5.51300e-04,  2.71700e-04,  2.71300e-04, -1.48200e-04]])

# Reaction 8
chebyshev_reaction('gQOOHb (+ M) <=> gQOOH[O] (+ M)',
                   Tmin=180.0, Tmax=1500.0,
                   Pmin=(0.01, 'atm'), Pmax=(98.692, 'atm'),
                   coeffs=[[-1.41700e+01,  1.35100e+00, -4.17300e-02, -6.53200e-02, -1.44000e-02,  4.93500e-03,  2.27600e-03, -3.77200e-04],
                           [ 3.20500e+00,  2.65700e+00,  3.10700e-01, -4.28000e-03, -2.39800e-02, -2.50400e-03,  2.12500e-03, -1.65600e-05],
                           [-3.31100e+00, -1.92600e-01,  1.20000e-01,  8.03600e-02,  8.39300e-03, -3.64400e-03, -2.37900e-03, -2.99000e-04],
                           [-1.98500e+00, -3.90300e-01, -2.45600e-02,  2.21500e-02,  6.11200e-03,  5.11900e-04, -9.98600e-04,  4.47000e-05],
                           [-8.46300e-01, -1.05700e-01, -1.17300e-02, -3.23600e-03, -3.62800e-03, -1.32000e-03,  1.05800e-04,  4.63000e-04],
                           [-3.20600e-01,  1.54200e-02,  2.24600e-02,  2.76500e-03, -3.04400e-03, -2.16400e-03, -9.74200e-05,  2.89100e-04],
                           [-1.51900e-01,  3.48700e-03,  4.27800e-02,  1.27700e-02, -8.32400e-04, -1.83800e-03, -1.89200e-04,  1.89500e-04],
                           [-1.11000e-01, -6.66700e-02,  3.26600e-02,  1.94800e-02,  1.24500e-03, -1.37100e-03, -9.23600e-05,  1.38400e-04],
                           [-1.01700e-01, -1.19500e-01, -1.65500e-03,  1.70900e-02,  3.85400e-03, -5.50600e-04, -1.34100e-05,  3.91400e-05],
                           [-5.23300e-02, -1.11400e-01, -3.64200e-02,  6.99900e-03,  5.44100e-03,  5.74300e-04, -1.20500e-04, -8.18600e-05]])

# Reaction 9
chebyshev_reaction('O2 + gR (+ M) <=> gQOOH[O] (+ M)',
                   Tmin=180.0, Tmax=1500.0,
                   Pmin=(0.01, 'atm'), Pmax=(98.692, 'atm'),
                   coeffs=[[ 2.25700e+00,  3.21900e-01, -4.03400e-01,  4.12800e-02, -1.90600e-04, -7.25100e-04,  1.86300e-03, -8.75800e-04],
                           [-3.06900e+00,  1.02500e+00,  1.22900e-01,  2.35200e-02, -9.95900e-03, -4.69300e-03, -9.88800e-05,  1.18900e-03],
                           [-2.15400e+00,  4.58600e-01, -1.34500e-02, -1.38500e-02,  1.98000e-02,  1.36100e-03, -2.51300e-03, -7.10800e-04],
                           [-1.20200e+00,  2.25600e-01, -3.74000e-03, -3.80500e-02,  4.22700e-03,  3.83500e-03,  8.23900e-04, -4.20000e-04],
                           [-5.58200e-01,  1.88000e-01,  3.10200e-02, -3.00600e-02, -4.53000e-03,  6.49700e-04,  4.64200e-04,  5.56000e-04],
                           [-2.46500e-01,  1.46900e-01,  5.96700e-02, -1.09000e-02, -5.61300e-03, -6.44800e-04, -3.42300e-04,  3.56000e-04],
                           [-1.52500e-01,  5.98400e-02,  6.71400e-02,  5.97400e-03, -4.66100e-03, -6.11100e-04, -1.00200e-05,  1.31400e-05],
                           [-1.34300e-01, -4.81900e-02,  4.61800e-02,  1.75100e-02, -2.72600e-03, -8.81700e-04,  5.67400e-04,  2.14000e-05],
                           [-1.13600e-01, -1.14400e-01,  6.09100e-03,  1.86900e-02,  5.38700e-04, -1.01800e-03,  6.44100e-04,  1.62700e-04],
                           [-6.26300e-02, -1.18200e-01, -2.99400e-02,  1.01000e-02,  3.74300e-03, -4.19500e-04,  1.74800e-04,  1.52900e-04]])
#  gRO2(+M) <=> gQOOHa(+M)                             1.000e+00 0.000     0.000
#      TCHEB/ 180.000   1500.000 /
#      PCHEB/ 0.010     98.692   /
#      CHEB/ 10 8/
#      CHEB/ -1.776e+00   8.681e-01    -3.480e-02   1.448e-02    -1.800e-03  /
#      CHEB/ -6.317e-04   -1.203e-04   -5.731e-05   1.963e+00    1.287e+00   /
#      CHEB/ 2.601e-02    7.628e-03    2.241e-04    -1.657e-03   -1.507e-04  /
#      CHEB/ -9.506e-05   -3.393e+00   4.561e-01    1.270e-01    3.558e-04   /
#      CHEB/ -2.323e-03   -2.532e-04   -2.830e-04   -2.504e-05   -2.045e+00  /
#      CHEB/ -7.660e-02   9.683e-02    1.720e-02    -4.882e-03   -5.355e-04  /
#      CHEB/ 6.250e-05    1.266e-05    -1.027e+00   -1.575e-01   1.042e-02   /
#      CHEB/ 2.246e-02    -8.503e-04   -2.011e-03   1.107e-04    1.816e-04   /
#      CHEB/ -4.278e-01   -4.497e-02   -1.960e-02   8.316e-03    2.714e-03   /
#      CHEB/ -1.812e-03   -3.145e-04   2.936e-04    -2.187e-01   1.424e-02   /
#      CHEB/ 8.073e-03    -6.036e-06   1.563e-04    -6.791e-04   -3.111e-04  /
#      CHEB/ 2.130e-04    -1.219e-01   -2.776e-02   2.915e-02    8.318e-03   /
#      CHEB/ -2.594e-03   -9.058e-04   1.780e-04    1.566e-04    -7.843e-02  /
#      CHEB/ -8.874e-02   8.713e-03    1.844e-02    4.553e-04    -1.619e-03  /
#      CHEB/ 2.237e-04    1.788e-04    -3.063e-02   -9.859e-02   -2.984e-02  /
#      CHEB/ 1.397e-02    6.442e-03    -6.056e-04   -3.659e-04   1.881e-05   /
#  gQOOH[O](+M) <=> gQOOHa(+M)                         1.000e+00 0.000     0.000
#      TCHEB/ 180.000   1500.000 /
#      PCHEB/ 0.010     98.692   /
#      CHEB/ 10 8/
#      CHEB/ -1.240e+00   -1.951e-01   -2.152e-01   5.850e-02    -4.528e-03  /
#      CHEB/ -3.296e-03   7.290e-04    2.419e-05    -3.349e+00   2.077e+00   /
#      CHEB/ 7.157e-02    -1.788e-02   7.528e-03    -2.407e-03   -4.929e-04  /
#      CHEB/ 8.608e-05    -4.554e+00   2.971e-01    2.950e-01    -8.477e-03  /
#      CHEB/ -1.599e-02   5.026e-03    2.038e-05    -7.711e-04   -2.689e+00  /
#      CHEB/ -3.443e-01   1.164e-01    3.595e-02    -1.123e-02   -7.124e-04  /
#      CHEB/ 1.094e-03    -2.130e-04   -1.062e+00   -1.949e-01   -5.684e-02  /
#      CHEB/ 2.189e-02    5.550e-03    -3.308e-03   -2.857e-04   5.019e-04   /
#      CHEB/ -3.027e-01   7.645e-02    -5.709e-02   -9.780e-03   6.696e-03   /
#      CHEB/ -8.598e-04   -9.484e-04   3.536e-04    -1.100e-01   1.439e-01   /
#      CHEB/ 2.449e-02    -1.196e-02   -2.253e-03   1.507e-04    -1.725e-04  /
#      CHEB/ 1.125e-04    -1.213e-01   2.708e-02    6.362e-02    1.113e-02   /
#      CHEB/ -6.163e-03   -1.344e-03   5.435e-04    1.599e-04    -1.260e-01  /
#      CHEB/ -1.093e-01   2.778e-02    2.766e-02    -2.546e-04   -2.415e-03  /