units(length='cm', time='s', quantity='mol', act_energy='kcal/mol')

ideal_gas(name='gas',
          elements="H D T C Ci O Oi N Ne Ar He Si S F Cl Br I X",
          species="""propene3ol       OH               disub_c4ether
                     H2O              disub_epoxy      gQOOHa
                     propene1ol       gQOOHb           ipropylOOH
                     galdoxy          galkene          CH2O
                     O2               gRO2             gQOOHg
                     gR               galdol           monosub_c4ether
                     HO2              gQOOH[O]""",
          reactions='all',
          initial_state=state(temperature=300.0, pressure=OneAtm))

#-------------------------------------------------------------------------------
# Element data
#-------------------------------------------------------------------------------

element(symbol='Ci', atomic_mass=13.003)
element(symbol='D', atomic_mass=2.014)
element(symbol='Oi', atomic_mass=18.0)
element(symbol='T', atomic_mass=3.016)
element(symbol='X', atomic_mass=195.083)
#-------------------------------------------------------------------------------
# Species data
#-------------------------------------------------------------------------------

species(name='propene3ol',
        atoms='C:3 H:6 O:1',
        thermo=(NASA([10.00, 444.81],
                     [ 3.92769709E+00,  4.89977303E-03,  1.13094874E-04,
                      -2.59008187E-07,  1.86205760E-10, -1.71122336E+04,
                       9.90805416E+00]),
                NASA([444.81, 3000.00],
                     [ 2.61720343E+00,  3.01777872E-02, -1.76511625E-05,
                       5.14864061E-09, -5.91153761E-13, -1.71291341E+04,
                       1.36683107E+01])))

species(name='OH',
        atoms='H:1 O:1',
        thermo=(NASA([10.00, 984.14],
                     [ 3.49686242E+00,  1.83973160E-04, -9.97634499E-07,
                       1.56942783E-09, -6.10128175E-13,  3.41673934E+03,
                       1.48093120E+00]),
                NASA([984.14, 3000.00],
                     [ 3.45221464E+00, -2.95124034E-04,  7.39418622E-07,
                      -2.89309866E-10,  3.53041498E-14,  3.45751599E+03,
                       1.85813897E+00])))

species(name='disub_c4ether',
        atoms='C:4 H:8 O:2',
        thermo=(NASA([10.00, 413.50],
                     [ 3.78241323E+00,  1.89501763E-02,  8.65302396E-05,
                      -1.80580575E-07,  1.13656264E-10, -3.86935557E+04,
                       1.09982450E+01]),
                NASA([413.50, 3000.00],
                     [ 4.29420885E-01,  5.13851903E-02, -3.11292293E-05,
                       9.11498284E-09, -1.03192718E-12, -3.84162614E+04,
                       2.42134976E+01])))

species(name='H2O',
        atoms='H:2 O:1',
        thermo=(NASA([10.00, 773.84],
                     [ 4.00473541E+00, -2.39729134E-04,  8.11862955E-07,
                       1.47891862E-09, -1.19783539E-12, -3.03533807E+04,
                      -9.96254147E-02]),
                NASA([773.84, 3000.00],
                     [ 3.52133374E+00,  1.05377009E-03,  6.40722099E-07,
                      -3.86240235E-10,  5.49243294E-14, -3.02424794E+04,
                       2.34173094E+00])))

species(name='disub_epoxy',
        atoms='C:4 H:8 O:2',
        thermo=(NASA([10.00, 549.41],
                     [ 3.89863211E+00,  5.97532637E-03,  1.66685676E-04,
                      -3.10743768E-07,  1.78330192E-10, -3.73507327E+04,
                       1.13847308E+01]),
                NASA([549.41, 3000.00],
                     [-6.40277648E-01,  6.05960003E-02, -4.13427220E-05,
                       1.31555461E-08, -1.57685017E-12, -3.71776158E+04,
                       2.76005436E+01])))

species(name='gQOOHa',
        atoms='C:4 H:9 O:3',
        thermo=(NASA([10.00, 160.74],
                     [ 3.80808147E+00,  2.31043884E-02,  5.26945984E-04,
                      -3.11500696E-06,  6.03881958E-09, -2.55142821E+04,
                       1.17645316E+01]),
                NASA([160.74, 3000.00],
                     [ 2.90630300E+00,  6.50241173E-02, -4.60073244E-05,
                       1.51330930E-08, -1.87074267E-12, -2.55104575E+04,
                       1.36838819E+01])))

species(name='propene1ol',
        atoms='C:3 H:6 O:1',
        thermo=(NASA([10.00, 459.42],
                     [ 3.91245344E+00,  5.85800161E-03,  1.15412006E-04,
                      -2.68014417E-07,  1.91800131E-10, -1.91345954E+04,
                       8.14807684E+00]),
                NASA([459.42, 3000.00],
                     [ 3.14049093E+00,  2.95550898E-02, -1.73843684E-05,
                       5.11506211E-09, -5.92966137E-13, -1.92428179E+04,
                       9.32215170E+00])))

species(name='gQOOHb',
        atoms='C:4 H:9 O:3',
        thermo=(NASA([10.00, 1018.67],
                     [ 3.99028351E+00,  4.29665712E-02,  2.28338778E-05,
                      -5.67914439E-08,  2.29383258E-11, -2.37267000E+04,
                       1.20326731E+01]),
                NASA([1018.67, 3000.00],
                     [ 1.38304153E+01,  3.88527019E-02, -2.19473905E-05,
                       5.78719895E-09, -5.85097740E-13, -2.75227848E+04,
                      -4.44147388E+01])))

species(name='ipropylOOH',
        atoms='C:3 H:7 O:2',
        thermo=(NASA([10.00, 405.01],
                     [ 3.30075623E+00,  7.58672756E-02, -3.35754269E-04,
                       8.05972164E-07, -6.68864582E-10, -8.18970980E+02,
                       1.43372849E+01]),
                NASA([405.01, 3000.00],
                     [ 2.51742509E+00,  3.72760950E-02, -2.12450220E-05,
                       5.83593926E-09, -6.22110649E-13, -3.75563374E+02,
                       2.20991392E+01])))

species(name='galdoxy',
        atoms='C:4 H:7 O:2',
        thermo=(NASA([10.00, 209.62],
                     [ 3.82641108E+00,  1.84758886E-02,  3.43073800E-04,
                      -1.82817005E-06,  2.98516720E-09, -1.75376999E+04,
                       1.17972706E+01]),
                NASA([209.62, 3000.00],
                     [ 4.22049016E+00,  4.03370149E-02, -2.36129482E-05,
                       6.72979114E-09, -7.47862493E-13, -1.76187697E+04,
                       8.97211724E+00])))

species(name='galkene',
        atoms='C:4 H:8 O:1',
        thermo=(NASA([10.00, 383.47],
                     [ 3.84035604E+00,  1.20378740E-02,  1.87486319E-04,
                      -5.44759148E-07,  4.80711015E-10, -2.30091735E+04,
                       1.02570291E+01]),
                NASA([383.47, 3000.00],
                     [ 4.00413385E+00,  3.79025144E-02, -2.15435710E-05,
                       6.15213311E-09, -6.97446345E-13, -2.32244628E+04,
                       6.98052628E+00])))

species(name='CH2O',
        atoms='C:1 H:2 O:1',
        thermo=(NASA([10.00, 601.31],
                     [ 4.03190845E+00, -1.93233367E-03,  8.89743345E-06,
                       2.98105926E-09, -7.90813886E-12, -1.42276270E+04,
                       3.47574660E+00]),
                NASA([601.31, 3000.00],
                     [ 1.40134195E+00,  9.48858016E-03, -4.43088317E-06,
                       9.48452194E-10, -7.43790219E-14, -1.38013869E+04,
                       1.57423780E+01])))

species(name='O2',
        atoms='O:2',
        thermo=(NASA([10.00, 605.96],
                     [ 3.50743498E+00, -4.43860349E-04,  1.45938058E-06,
                       1.61509333E-09, -2.32050052E-12, -9.24756224E+02,
                       4.72183634E+00]),
                NASA([605.96, 3000.00],
                     [ 2.87462882E+00,  2.17840991E-03, -1.18262921E-06,
                       2.86910493E-10, -2.53297146E-14, -8.19517838E+02,
                       7.69331810E+00])))

species(name='gRO2',
        atoms='C:4 H:9 O:3',
        thermo=(NASA([10.00, 177.33],
                     [ 3.70632176E+00,  3.49733664E-02,  4.64036392E-04,
                      -3.18637835E-06,  6.38178607E-09, -2.69920323E+04,
                       1.24459269E+01]),
                NASA([177.33, 3000.00],
                     [ 4.82062697E+00,  5.17179689E-02, -3.18386818E-05,
                       9.52247045E-09, -1.10180288E-12, -2.70974028E+04,
                       7.14082953E+00])))

species(name='gQOOHg',
        atoms='C:4 H:9 O:3',
        thermo=(NASA([10.00, 475.03],
                     [ 3.42273720E+00,  4.98344215E-02,  6.47820920E-05,
                      -2.49842966E-07,  1.98636537E-10, -2.06833400E+04,
                       1.41578583E+01]),
                NASA([475.03, 3000.00],
                     [ 5.94049074E+00,  5.53778585E-02, -3.71708255E-05,
                       1.17540477E-08, -1.40812095E-12, -2.12242943E+04,
                       7.09201218E-01])))

species(name='gR',
        atoms='C:4 H:9 O:1',
        thermo=(NASA([10.00, 638.24],
                     [ 3.37074633E+00,  5.17529751E-02, -6.54872940E-05,
                       6.88084237E-08, -3.21569794E-11, -1.14451922E+04,
                       1.14339669E+01]),
                NASA([638.24, 3000.00],
                     [ 3.99410860E+00,  4.06314915E-02, -2.23932510E-05,
                       6.08356263E-09, -6.49884708E-13, -1.13778175E+04,
                       9.85769960E+00])))

species(name='galdol',
        atoms='C:4 H:8 O:2',
        thermo=(NASA([10.00, 506.68],
                     [ 3.85380874E+00,  9.21272695E-03,  1.86712348E-04,
                      -3.96417049E-07,  2.55528268E-10, -4.85482422E+04,
                       1.24312743E+01]),
                NASA([506.68, 3000.00],
                     [ 1.49710213E+00,  5.65979142E-02, -3.87709084E-05,
                       1.23682052E-08, -1.48287964E-12, -4.86788516E+04,
                       1.85531759E+01])))

species(name='monosub_c4ether',
        atoms='C:4 H:8 O:2',
        thermo=(NASA([10.00, 380.36],
                     [ 3.47743996E+00,  6.08051311E-02, -2.78518945E-04,
                       8.23182713E-07, -7.87158031E-10, -3.37788921E+04,
                       1.06415154E+01]),
                NASA([380.36, 3000.00],
                     [-1.09346901E+00,  5.35985968E-02, -3.21081420E-05,
                       9.20818293E-09, -1.01830294E-12, -3.30313320E+04,
                       3.35312368E+01])))

species(name='HO2',
        atoms='H:1 O:2',
        thermo=(NASA([10.00, 891.11],
                     [ 4.02887004E+00, -1.75769289E-03,  1.08726004E-05,
                      -1.13812972E-08,  3.90113097E-12,  4.95165001E+02,
                       4.69302008E+00]),
                NASA([891.11, 3000.00],
                     [ 3.06571044E+00,  4.28505005E-03, -2.19325920E-06,
                       5.58882699E-10, -5.61246669E-14,  5.98557610E+02,
                       8.84564156E+00])))

species(name='gQOOH[O]',
        atoms='C:4 H:9 O:3',
        thermo=(NASA([10.00, 535.23],
                     [ 3.83107445E+00,  1.02302002E-02,  2.29377261E-04,
                      -4.59095575E-07,  2.77765018E-10, -1.74678296E+04,
                       1.41034859E+01]),
                NASA([535.23, 3000.00],
                     [-4.19283096E-01,  7.69784620E-02, -5.57279000E-05,
                       1.81378295E-08, -2.18295635E-12, -1.75139430E+04,
                       2.72711816E+01])))

#-------------------------------------------------------------------------------
# Reaction data
#-------------------------------------------------------------------------------

# Reaction 1
chebyshev_reaction('gQOOH[O] (+ M) <=> gRO2 (+ M)',
                   Tmin=180.0, Tmax=1500.0,
                   Pmin=(0.01, 'atm'), Pmax=(98.692, 'atm'),
                   coeffs=[[ 4.86600e+00,  2.05700e+00, -2.97700e-02, -6.55000e-03, -3.75700e-03, -7.05700e-04, -1.33600e-04,  9.32100e-05],
                           [-6.93100e+00,  1.26700e-01, -1.48900e-02,  3.28600e-03, -3.91500e-03,  8.03200e-04, -2.56600e-04, -1.11400e-04],
                           [-3.96200e+00,  4.53500e-02, -2.61600e-02, -6.87200e-03, -4.13800e-03, -7.18500e-04,  3.24900e-05,  8.33200e-06],
                           [-2.13600e+00, -3.69700e-03, -8.66800e-03, -5.21400e-03, -5.72800e-04, -4.52300e-04, -8.03200e-05,  1.17500e-04],
                           [-1.04200e+00, -4.26400e-02, -2.68100e-03, -4.97700e-03,  2.40900e-04, -1.75900e-04, -1.18600e-04,  1.09800e-04],
                           [-5.23000e-01, -4.33200e-02,  1.46200e-03, -6.97100e-04,  7.68400e-04,  1.40600e-04, -2.23300e-05, -9.58600e-06],
                           [-8.54200e-02, -2.92200e-02, -4.60700e-03, -5.01500e-04, -1.64500e-04, -6.26000e-05,  5.23300e-05,  1.12200e-05],
                           [-4.17800e-03,  3.14800e-03, -2.43800e-03,  1.92700e-03,  1.45000e-04, -5.12700e-07,  2.63900e-05, -2.28500e-06],
                           [ 1.73900e-02,  2.25700e-02, -4.28100e-04,  1.83000e-03,  1.13100e-04,  4.15000e-05, -1.44500e-05, -1.64300e-05],
                           [ 6.44100e-02,  2.24000e-02,  3.49300e-04,  4.72000e-05, -2.78300e-04, -6.30400e-06, -1.18200e-05, -1.84400e-05]])

# Reaction 2
chebyshev_reaction('gQOOHa (+ M) <=> gRO2 (+ M)',
                   Tmin=180.0, Tmax=1500.0,
                   Pmin=(0.01, 'atm'), Pmax=(98.692, 'atm'),
                   coeffs=[[ 3.44800e+00,  6.03200e-01, -7.31600e-02,  1.53400e-02,  2.16800e-03, -2.43900e-04, -2.26900e-04,  7.05100e-05],
                           [-2.99900e+00,  8.13000e-01, -5.69400e-02,  1.13100e-02,  6.41100e-03, -7.51300e-04, -2.66600e-04,  7.50800e-05],
                           [-3.90100e+00,  8.33700e-02,  4.95400e-02,  1.97200e-04,  2.21900e-03,  4.70500e-04, -1.77600e-04, -4.78500e-06],
                           [-2.45600e+00, -3.54700e-01,  3.35800e-02,  1.09500e-02, -2.47800e-03,  4.19300e-04,  2.18900e-04, -5.95500e-05],
                           [-1.17900e+00, -3.44600e-01, -4.41100e-02,  1.18400e-02, -2.72200e-04, -7.81000e-04,  3.23200e-04,  6.38100e-05],
                           [-3.76400e-01, -1.23200e-01, -7.15800e-02, -5.68300e-03,  2.48000e-03, -4.19600e-04, -4.51700e-05,  1.65100e-04],
                           [-4.18400e-02,  5.38800e-02, -3.24600e-02, -1.76400e-02, -6.67600e-04,  8.45600e-04, -6.13700e-05,  5.36600e-05],
                           [ 7.93300e-02,  1.00600e-01,  1.65300e-02, -9.61900e-03, -5.07600e-03,  4.37000e-04,  3.60500e-04, -5.71500e-05],
                           [ 3.49000e-02,  6.36300e-02,  3.05400e-02,  6.87600e-03, -4.06100e-03, -1.25600e-03,  3.21800e-04,  3.12900e-06],
                           [ 1.07500e-02,  1.36100e-02,  1.40200e-02,  1.32100e-02,  1.41800e-03, -1.74500e-03, -3.68900e-04,  4.68300e-05]])

# Reaction 3
chebyshev_reaction('gQOOHg (+ M) <=> gRO2 (+ M)',
                   Tmin=180.0, Tmax=1500.0,
                   Pmin=(0.01, 'atm'), Pmax=(98.692, 'atm'),
                   coeffs=[[ 1.38300e+00,  5.02400e-01, -3.05000e-03,  1.09500e-02, -3.01400e-03,  1.20100e-03, -3.40100e-04,  1.19000e-04],
                           [-4.42800e-01,  7.69200e-01,  2.00900e-02,  1.85300e-02, -5.50200e-03,  1.41000e-03,  3.53000e-04, -2.14200e-04],
                           [-3.64500e+00,  3.11500e-01,  4.89500e-02,  4.81200e-03,  2.28100e-03, -6.23300e-04,  9.64500e-05,  2.16900e-04],
                           [-2.59600e+00, -8.44600e-02,  4.36500e-02, -8.74200e-05,  3.74900e-03,  2.66300e-04, -2.99900e-04, -2.26300e-05],
                           [-1.40200e+00, -2.55100e-01,  4.39700e-03,  2.72000e-03,  2.08300e-03,  7.30600e-04, -4.09000e-05, -2.47400e-04],
                           [-5.73900e-01, -2.32000e-01, -3.50700e-02,  3.16000e-03,  1.51200e-03,  2.24400e-04,  6.54300e-05, -8.79500e-05],
                           [-1.07500e-01, -1.19600e-01, -5.15700e-02, -1.63000e-03,  1.63900e-03, -1.22400e-04, -1.21300e-04,  9.02300e-05],
                           [ 7.60400e-02, -3.25400e-03, -4.26500e-02, -8.04800e-03,  6.80000e-04,  9.11900e-05, -1.89800e-04,  1.02200e-04],
                           [ 1.18500e-01,  7.11100e-02, -1.79800e-02, -1.14400e-02, -1.57200e-03,  3.38100e-04,  7.03500e-05,  5.70100e-05],
                           [ 5.71800e-02,  9.02300e-02,  8.72900e-03, -9.60100e-03, -3.71500e-03,  2.21300e-04,  3.81900e-04,  7.25900e-05]])

# Reaction 4
chebyshev_reaction('gQOOHb (+ M) <=> gRO2 (+ M)',
                   Tmin=180.0, Tmax=1500.0,
                   Pmin=(0.01, 'atm'), Pmax=(98.692, 'atm'),
                   coeffs=[[-9.99900e-01,  8.80100e-01,  4.65600e-02, -1.48200e-03, -4.86800e-03, -9.44900e-04,  8.45300e-05,  9.77000e-05],
                           [-1.33700e+00,  1.16800e+00,  1.23900e-01, -8.73900e-03, -6.00700e-03, -1.27200e-03,  8.01100e-05,  1.62600e-04],
                           [-3.28400e+00,  3.07800e-01,  4.20800e-02,  3.79500e-03, -3.35700e-04, -3.01400e-04,  8.25900e-05,  5.51300e-05],
                           [-1.99700e+00, -1.29300e-01, -5.42700e-02, -3.24300e-04,  4.76600e-03,  8.43300e-04,  5.00300e-05, -2.54800e-05],
                           [-1.05000e+00, -1.66000e-01, -6.89200e-02, -9.46700e-03,  3.15000e-03,  1.08100e-03,  1.08000e-04, -3.25500e-05],
                           [-4.49800e-01, -6.76000e-02, -3.46900e-02, -6.34800e-03, -3.95500e-05,  3.37900e-05, -1.03000e-05,  7.94300e-07],
                           [-1.08700e-01,  2.30500e-03, -5.69000e-03,  1.25600e-03, -3.71800e-04, -5.89000e-04, -2.03500e-04, -2.47600e-05],
                           [ 3.05200e-02,  2.91200e-02,  1.47500e-03,  3.96000e-03,  4.20000e-04, -2.73800e-04, -1.47500e-04, -5.06300e-05],
                           [ 2.88400e-02,  3.53900e-02, -9.89000e-04,  2.42900e-03,  3.30900e-04,  1.12000e-04,  5.00500e-05, -1.59700e-05],
                           [ 3.25500e-02,  2.43200e-02,  1.15600e-03, -3.28700e-05, -1.94800e-04,  1.30000e-04,  1.26600e-04,  2.24700e-05]])

# Reaction 5
chebyshev_reaction('O2 + gR (+ M) <=> gRO2 (+ M)',
                   Tmin=180.0, Tmax=1500.0,
                   Pmin=(0.01, 'atm'), Pmax=(98.692, 'atm'),
                   coeffs=[[ 1.34100e+01,  1.09800e+00, -1.23700e-01,  2.11900e-02, -9.75000e-03,  4.04100e-03, -1.50200e-04, -5.46600e-04],
                           [-4.76500e+00,  9.06600e-01,  4.97100e-02, -7.58200e-03,  3.26800e-03, -3.40800e-03,  2.96700e-04,  7.26500e-04],
                           [-2.81300e+00,  1.95300e-01,  4.98300e-02, -6.74000e-04,  2.75000e-03, -2.71400e-04, -3.64800e-04, -1.57400e-04],
                           [-1.56800e+00, -3.51500e-02,  1.89400e-02, -3.84300e-03,  1.89100e-03,  2.96200e-04,  1.06900e-04, -1.99900e-04],
                           [-7.83400e-01, -8.03100e-02,  4.39300e-03, -3.78300e-03,  4.07500e-04, -3.91100e-05,  2.40100e-04,  2.22800e-05],
                           [-3.05100e-01, -6.78100e-02, -3.12300e-03, -1.62700e-03,  1.86800e-04, -3.27200e-04,  2.25900e-05,  1.42100e-04],
                           [-4.84700e-02, -3.32800e-02, -7.07300e-03, -1.56800e-04,  2.18100e-04, -1.71300e-04, -1.55400e-04,  7.11300e-05],
                           [ 5.29000e-02,  1.35700e-03, -6.30200e-03,  3.01500e-04,  1.21000e-05,  8.85000e-05, -1.22800e-04, -4.61900e-05],
                           [ 6.05000e-02,  2.20900e-02, -2.23000e-03,  3.58500e-04, -2.91900e-04,  1.84300e-04,  2.52000e-05, -8.75700e-05],
                           [ 2.84000e-02,  2.46300e-02,  2.10900e-03,  4.20200e-04, -3.72200e-04,  4.67300e-05,  1.27900e-04, -2.78700e-05]])
#  gRO2(+M) <=> gQOOH[O](+M)                           1.000e+00 0.000     0.000
#      TCHEB/ 180.000   1500.000 /
#      PCHEB/ 0.010     98.692   /
#      CHEB/ 10 8/
#      CHEB/ -8.488e+00   2.057e+00    -2.977e-02   -6.550e-03   -3.757e-03  /
#      CHEB/ -7.057e-04   -1.336e-04   9.321e-05    2.916e+00    1.267e-01   /
#      CHEB/ -1.489e-02   3.286e-03    -3.915e-03   8.032e-04    -2.566e-04  /
#      CHEB/ -1.114e-04   -3.789e+00   4.535e-02    -2.616e-02   -6.872e-03  /
#      CHEB/ -4.138e-03   -7.185e-04   3.249e-05    8.332e-06    -2.011e+00  /
#      CHEB/ -3.697e-03   -8.668e-03   -5.214e-03   -5.728e-04   -4.523e-04  /
#      CHEB/ -8.032e-05   1.175e-04    -9.885e-01   -4.264e-02   -2.681e-03  /
#      CHEB/ -4.977e-03   2.409e-04    -1.759e-04   -1.186e-04   1.098e-04   /
#      CHEB/ -5.040e-01   -4.332e-02   1.462e-03    -6.971e-04   7.684e-04   /
#      CHEB/ 1.406e-04    -2.233e-05   -9.586e-06   -7.920e-02   -2.922e-02  /
#      CHEB/ -4.607e-03   -5.015e-04   -1.645e-04   -6.260e-05   5.233e-05   /
#      CHEB/ 1.122e-05    -2.260e-03   3.148e-03    -2.438e-03   1.927e-03   /
#      CHEB/ 1.450e-04    -5.127e-07   2.639e-05    -2.285e-06   1.785e-02   /
#      CHEB/ 2.257e-02    -4.281e-04   1.830e-03    1.131e-04    4.150e-05   /
#      CHEB/ -1.445e-05   -1.643e-05   6.438e-02    2.240e-02    3.493e-04   /
#      CHEB/ 4.720e-05    -2.783e-04   -6.304e-06   -1.182e-05   -1.844e-05  /

# Reaction 6
chebyshev_reaction('gQOOHa (+ M) <=> gQOOH[O] (+ M)',
                   Tmin=180.0, Tmax=1500.0,
                   Pmin=(0.01, 'atm'), Pmax=(98.692, 'atm'),
                   coeffs=[[-9.18200e+00,  9.65600e-01, -2.43600e-01,  6.96100e-02, -4.78400e-03, -4.00300e-03,  1.52500e-03, -6.48000e-04],
                           [ 4.32700e-01,  7.67700e-01,  8.45400e-03, -4.43000e-02,  2.25000e-02, -6.92900e-04, -3.03200e-03,  1.62500e-03],
                           [-4.52100e+00,  1.42500e-02,  4.45100e-02, -1.90300e-02, -7.97000e-03,  3.16300e-03, -9.23700e-04, -1.54900e-04],
                           [-2.36300e+00, -3.03600e-01, -4.88500e-03,  1.89700e-02, -6.77800e-03, -1.11300e-03,  1.17100e-03, -2.73600e-04],
                           [-1.02900e+00, -2.72200e-01, -7.27400e-02,  1.49300e-02,  3.95100e-03, -3.06800e-03,  6.58900e-04,  3.30900e-04],
                           [-4.35400e-01, -9.63200e-02, -6.36300e-02, -8.51700e-03,  7.13000e-03, -2.47100e-04, -6.29400e-04,  3.98700e-04],
                           [-5.24400e-03,  3.49700e-02, -2.28300e-02, -2.12100e-02, -3.52700e-04,  1.69100e-03, -1.92500e-04, -1.06100e-05],
                           [ 1.67500e-02,  7.28400e-02,  2.68200e-02, -9.08200e-03, -6.37500e-03,  1.00400e-03,  4.64600e-04, -1.53700e-04],
                           [ 2.60300e-03,  4.39700e-02,  3.44700e-02,  8.36600e-03, -5.01700e-03, -1.28200e-03,  4.28400e-04, -1.07500e-05],
                           [ 4.81300e-02,  5.88500e-03,  9.44100e-03,  1.35700e-02,  1.04700e-03, -2.09200e-03, -3.01100e-04,  5.30700e-05]])

# Reaction 7
chebyshev_reaction('gQOOHg (+ M) <=> gQOOH[O] (+ M)',
                   Tmin=180.0, Tmax=1500.0,
                   Pmin=(0.01, 'atm'), Pmax=(98.692, 'atm'),
                   coeffs=[[-8.64500e+00,  6.60200e-01,  8.07500e-02,  5.11800e-02,  6.66500e-03,  5.58700e-04, -1.95500e-03, -8.27700e-04],
                           [-2.45700e-01,  6.28600e-01, -7.16700e-02, -1.81100e-02, -1.19000e-02,  3.03000e-03,  2.10700e-03,  7.65300e-04],
                           [-3.43900e+00,  2.25600e-01, -1.13700e-02, -2.39300e-02, -1.02800e-02, -3.76200e-03,  6.76900e-05,  5.02200e-04],
                           [-2.33100e+00, -6.98500e-02,  4.68000e-02,  3.04300e-03,  2.80300e-03, -9.79400e-04, -6.86100e-04, -1.24100e-04],
                           [-1.20700e+00, -2.38500e-01,  1.17700e-02,  1.01900e-02,  5.47100e-03,  1.69900e-03, -5.67100e-05, -3.30300e-04],
                           [-6.44500e-01, -2.09700e-01, -2.37800e-02,  9.08500e-03,  3.60100e-03,  8.36100e-04,  7.12100e-05, -9.41200e-05],
                           [-9.19600e-02, -1.31300e-01, -5.76300e-02, -3.63500e-03,  1.47600e-03,  3.31900e-04,  1.11700e-04,  1.15900e-04],
                           [ 4.42500e-04, -6.10100e-03, -4.26600e-02, -8.31300e-03,  1.92700e-04, -1.15800e-04, -1.80700e-04,  9.89000e-05],
                           [ 5.44300e-02,  6.74200e-02, -1.83700e-02, -1.17800e-02, -1.94600e-03,  1.05900e-04,  4.92700e-05,  8.47700e-05],
                           [ 1.12700e-01,  8.33300e-02,  6.16900e-03, -1.04700e-02, -3.84200e-03,  8.84300e-05,  2.99900e-04,  5.54700e-05]])

# Reaction 8
chebyshev_reaction('gQOOHb (+ M) <=> gQOOH[O] (+ M)',
                   Tmin=180.0, Tmax=1500.0,
                   Pmin=(0.01, 'atm'), Pmax=(98.692, 'atm'),
                   coeffs=[[-1.25600e+01,  1.51400e+00, -4.34900e-02, -2.16200e-02,  1.31000e-02,  2.02000e-03, -2.91100e-03,  7.10300e-05],
                           [ 5.19500e-01,  8.86600e-01,  1.85500e-01,  1.94200e-03, -3.13700e-02,  8.87100e-04,  4.31900e-03, -4.55200e-04],
                           [-3.38700e+00,  1.62800e-01, -5.02800e-02,  2.53200e-03, -6.92600e-03, -5.46500e-03, -2.53100e-04,  8.43200e-04],
                           [-1.86500e+00, -3.80300e-02, -9.72800e-02, -9.53700e-03,  6.01800e-03,  1.94200e-04, -7.85600e-04,  4.74800e-05],
                           [-9.22600e-01, -6.00900e-02, -5.99400e-02, -1.47600e-02,  4.33900e-03,  2.93500e-03,  4.44500e-05, -1.86600e-04],
                           [-4.89900e-01, -5.78700e-02, -9.89600e-03,  7.65700e-04, -1.74200e-04,  5.92400e-04,  6.57400e-04, -1.88900e-05],
                           [-7.50200e-02, -3.97200e-02, -1.51000e-03,  2.31900e-03, -9.76900e-04, -1.81000e-04, -4.39900e-05,  5.72800e-06],
                           [-9.94100e-03, -2.20000e-02,  2.75600e-03,  7.30300e-03, -5.95400e-04, -9.42200e-04, -6.01400e-05,  6.51900e-05],
                           [ 1.14700e-02,  2.36800e-03,  9.04200e-04,  4.51500e-03, -1.77300e-04, -4.46700e-04, -8.25900e-05,  4.40400e-05],
                           [ 7.19700e-02,  1.68800e-02, -2.18600e-04, -1.88800e-03,  1.41000e-05,  3.59300e-04, -1.84900e-04, -3.68700e-05]])

# Reaction 9
chebyshev_reaction('O2 + gR (+ M) <=> gQOOH[O] (+ M)',
                   Tmin=180.0, Tmax=1500.0,
                   Pmin=(0.01, 'atm'), Pmax=(98.692, 'atm'),
                   coeffs=[[ 3.49200e+00,  1.35900e+00,  4.24800e-02,  1.02100e-01,  2.11400e-02,  1.05500e-02, -5.29200e-04, -1.73900e-03],
                           [-4.70700e+00,  6.03900e-01, -1.35600e-01, -1.02700e-01, -3.00400e-02, -1.07900e-02,  9.71300e-04,  2.04700e-03],
                           [-2.57600e+00,  1.34500e-01,  1.38000e-02, -2.04900e-02, -5.54300e-03, -2.86600e-03, -6.37700e-04, -1.28300e-05],
                           [-1.29200e+00, -8.26500e-03,  3.51800e-02,  4.41500e-03,  3.83800e-03,  2.85700e-04, -2.49900e-04, -3.75200e-04],
                           [-5.94300e-01, -6.89400e-02,  9.98400e-03,  1.70900e-03,  3.09300e-03,  1.20800e-03,  4.65700e-04,  7.53900e-05],
                           [-3.81400e-01, -4.16500e-02,  1.00200e-02,  5.12400e-03,  2.23400e-03,  3.47800e-04, -3.07400e-05,  1.43600e-05],
                           [-3.69500e-02, -4.46800e-02, -1.58200e-02, -3.50700e-03, -9.27500e-04, -1.71100e-06,  7.65100e-05,  2.11400e-04],
                           [-2.72800e-02,  2.89300e-03, -6.06900e-03,  7.04300e-04, -2.85700e-04, -5.66900e-05, -1.68800e-04, -8.06900e-05],
                           [-4.09600e-03,  2.32200e-02, -1.81300e-03,  7.65600e-04, -3.81100e-04,  4.81900e-06, -2.52600e-05, -8.41600e-05],
                           [ 7.72800e-02,  1.67000e-02, -2.52500e-03, -1.39000e-03, -7.73300e-04, -1.01900e-04,  6.24700e-05, -2.56600e-05]])
#  gRO2(+M) <=> gQOOHa(+M)                             1.000e+00 0.000     0.000
#      TCHEB/ 180.000   1500.000 /
#      PCHEB/ 0.010     98.692   /
#      CHEB/ 10 8/
#      CHEB/ 1.143e+00    6.032e-01    -7.316e-02   1.534e-02    2.168e-03   /
#      CHEB/ -2.439e-04   -2.269e-04   7.051e-05    -1.210e+00   8.130e-01   /
#      CHEB/ -5.694e-02   1.131e-02    6.411e-03    -7.513e-04   -2.666e-04  /
#      CHEB/ 7.508e-05    -3.739e+00   8.337e-02    4.954e-02    1.972e-04   /
#      CHEB/ 2.219e-03    4.705e-04    -1.776e-04   -4.785e-06   -2.382e+00  /
#      CHEB/ -3.547e-01   3.358e-02    1.095e-02    -2.478e-03   4.193e-04   /
#      CHEB/ 2.189e-04    -5.955e-05   -1.150e+00   -3.446e-01   -4.411e-02  /
#      CHEB/ 1.184e-02    -2.722e-04   -7.810e-04   3.232e-04    6.381e-05   /
#      CHEB/ -3.666e-01   -1.232e-01   -7.158e-02   -5.683e-03   2.480e-03   /
#      CHEB/ -4.196e-04   -4.517e-05   1.651e-04    -3.894e-02   5.388e-02   /
#      CHEB/ -3.246e-02   -1.764e-02   -6.676e-04   8.456e-04    -6.137e-05  /
#      CHEB/ 5.366e-05    7.996e-02    1.006e-01    1.653e-02    -9.619e-03  /
#      CHEB/ -5.076e-03   4.370e-04    3.605e-04    -5.715e-05   3.489e-02   /
#      CHEB/ 6.363e-02    3.054e-02    6.876e-03    -4.061e-03   -1.256e-03  /
#      CHEB/ 3.218e-04    3.129e-06    1.063e-02    1.361e-02    1.402e-02   /
#      CHEB/ 1.321e-02    1.418e-03    -1.745e-03   -3.689e-04   4.683e-05   /
#  gQOOH[O](+M) <=> gQOOHa(+M)                         1.000e+00 0.000     0.000
#      TCHEB/ 180.000   1500.000 /
#      PCHEB/ 0.010     98.692   /
#      CHEB/ 10 8/
#      CHEB/ 1.867e+00    9.656e-01    -2.436e-01   6.961e-02    -4.784e-03  /
#      CHEB/ -4.003e-03   1.525e-03    -6.480e-04   -7.626e+00   7.677e-01   /
#      CHEB/ 8.454e-03    -4.430e-02   2.250e-02    -6.929e-04   -3.032e-03  /
#      CHEB/ 1.625e-03    -4.532e+00   1.425e-02    4.451e-02    -1.903e-02  /
#      CHEB/ -7.970e-03   3.163e-03    -9.237e-04   -1.549e-04   -2.414e+00  /
#      CHEB/ -3.036e-01   -4.885e-03   1.897e-02    -6.778e-03   -1.113e-03  /
#      CHEB/ 1.171e-03    -2.736e-04   -1.055e+00   -2.722e-01   -7.274e-02  /
#      CHEB/ 1.493e-02    3.951e-03    -3.068e-03   6.589e-04    3.309e-04   /
#      CHEB/ -4.447e-01   -9.632e-02   -6.363e-02   -8.517e-03   7.130e-03   /
#      CHEB/ -2.471e-04   -6.294e-04   3.987e-04    -8.553e-03   3.497e-02   /
#      CHEB/ -2.283e-02   -2.121e-02   -3.527e-04   1.691e-03    -1.925e-04  /
#      CHEB/ -1.061e-05   1.546e-02    7.284e-02    2.682e-02    -9.082e-03  /
#      CHEB/ -6.375e-03   1.004e-03    4.646e-04    -1.537e-04   2.138e-03   /
#      CHEB/ 4.397e-02    3.447e-02    8.366e-03    -5.017e-03   -1.282e-03  /