units(length='cm', time='s', quantity='mol', act_energy='kcal/mol')

ideal_gas(name='gas',
          elements="H D T C Ci O Oi N Ne Ar He Si S F Cl Br I X",
          species="""aOOHbalkene      OH               ibutanal
                     aR               performic_acid   disub_c4ether
                     aQOOHb           H                aadduct
                     trisub_epoxy     ibutenol         aQOOH[O]
                     ipropyl          aRO2             O2
                     formic_acid      propene          aQOOHg
                     ibut_peroxyacid  HO2              CH3""",
          reactions='all',
          initial_state=state(temperature=300.0, pressure=OneAtm))

#-------------------------------------------------------------------------------
# Element data
#-------------------------------------------------------------------------------

element(symbol='Ci', atomic_mass=13.003)
element(symbol='D', atomic_mass=2.014)
element(symbol='Oi', atomic_mass=18.0)
element(symbol='T', atomic_mass=3.016)
element(symbol='X', atomic_mass=195.083)
#-------------------------------------------------------------------------------
# Species data
#-------------------------------------------------------------------------------

species(name='aOOHbalkene',
        atoms='C:3 H:6 O:3',
        thermo=(NASA([10.00, 497.41],
                     [ 3.76691735E+00,  1.51417956E-02,  1.85499431E-04,
                      -4.61303214E-07,  3.27678941E-10, -2.97501281E+04,
                       1.09903968E+01]),
                NASA([497.41, 3000.00],
                     [ 6.20882781E+00,  4.08866173E-02, -2.89934946E-05,
                       9.60428979E-09, -1.19355432E-12, -3.05544574E+04,
                      -4.72842811E+00])))

species(name='OH',
        atoms='H:1 O:1',
        thermo=(NASA([10.00, 984.14],
                     [ 3.49686242E+00,  1.83973160E-04, -9.97634499E-07,
                       1.56942783E-09, -6.10128175E-13,  3.41673934E+03,
                       1.48093120E+00]),
                NASA([984.14, 3000.00],
                     [ 3.45221464E+00, -2.95124034E-04,  7.39418622E-07,
                      -2.89309866E-10,  3.53041498E-14,  3.45751599E+03,
                       1.85813897E+00])))

species(name='ibutanal',
        atoms='C:4 H:8 O:1',
        thermo=(NASA([10.00, 683.88],
                     [ 3.57157346E+00,  3.36936906E-02, -1.78475021E-05,
                       1.31946716E-08, -7.58008388E-12, -2.74042557E+04,
                       1.05595084E+01]),
                NASA([683.88, 3000.00],
                     [ 1.29043622E+00,  4.14804229E-02, -2.27411206E-05,
                       6.08619500E-09, -6.38995128E-13, -2.69623366E+04,
                       2.16477430E+01])))

species(name='aR',
        atoms='C:4 H:9 O:1',
        thermo=(NASA([10.00, 455.22],
                     [ 3.59625500E+00,  3.38947981E-02,  7.37257079E-06,
                      -3.99275335E-08,  2.49019944E-11, -1.56416137E+04,
                       1.18269265E+01]),
                NASA([455.22, 3000.00],
                     [ 2.49586309E+00,  4.35639890E-02, -2.44887770E-05,
                       6.73363769E-09, -7.23862433E-13, -1.55414305E+04,
                       1.62696907E+01])))

species(name='performic_acid',
        atoms='C:1 H:2 O:3',
        thermo=(NASA([10.00, 590.95],
                     [ 3.92633851E+00,  4.24517168E-03,  6.71106764E-05,
                      -1.36545385E-07,  8.03337864E-11, -3.63028176E+04,
                       8.06485813E+00]),
                NASA([590.95, 3000.00],
                     [ 4.39992934E+00,  1.85411415E-02, -1.36005501E-05,
                       4.62292431E-09, -5.88463603E-13, -3.66643888E+04,
                       3.44353230E+00])))

species(name='disub_c4ether',
        atoms='C:4 H:8 O:2',
        thermo=(NASA([10.00, 413.50],
                     [ 3.78241323E+00,  1.89501763E-02,  8.65302396E-05,
                      -1.80580575E-07,  1.13656264E-10, -3.71540991E+04,
                       1.09982450E+01]),
                NASA([413.50, 3000.00],
                     [ 4.29420885E-01,  5.13851903E-02, -3.11292293E-05,
                       9.11498284E-09, -1.03192718E-12, -3.68768048E+04,
                       2.42134976E+01])))

species(name='aQOOHb',
        atoms='C:4 H:9 O:3',
        thermo=(NASA([10.00, 412.78],
                     [ 3.15498836E+00,  8.55068303E-02, -2.35307993E-04,
                       4.71983261E-07, -3.62709267E-10, -2.75746627E+04,
                       1.52522123E+01]),
                NASA([412.78, 3000.00],
                     [ 4.18099845E+00,  5.26168288E-02, -3.23998410E-05,
                       9.59389339E-09, -1.09464519E-12, -2.74638678E+04,
                       1.35782328E+01])))

species(name='H',
        atoms='H:1',
        thermo=(NASA([10.00, 794.01],
                     [ 2.50000000E+00,  1.99051163E-15, -1.19089508E-17,
                       2.10805655E-20, -1.11017699E-23,  2.54725594E+04,
                      -4.61279342E-01]),
                NASA([794.01, 3000.00],
                     [ 2.50000000E+00,  1.52667235E-14, -1.58445285E-17,
                       6.63088600E-21, -9.62111674E-25,  2.54725594E+04,
                      -4.61279342E-01])))

species(name='aadduct',
        atoms='C:4 H:9 O:3',
        thermo=(NASA([10.00, 449.84],
                     [ 3.06901904E+00,  9.20724491E-02, -2.68085092E-04,
                       5.15249897E-07, -3.68046586E-10, -3.12929635E+04,
                       1.46591735E+01]),
                NASA([449.84, 3000.00],
                     [ 4.11210745E+00,  5.16955724E-02, -2.97401041E-05,
                       8.32758939E-09, -9.08861448E-13, -3.10721225E+04,
                       1.39578825E+01])))

species(name='trisub_epoxy',
        atoms='C:4 H:8 O:2',
        thermo=(NASA([10.00, 209.19],
                     [ 3.75295042E+00,  2.37546930E-02,  1.26610110E-04,
                      -4.78364365E-07,  5.79468168E-10, -3.95455720E+04,
                       1.12739684E+01]),
                NASA([209.19, 3000.00],
                     [ 2.64185254E+00,  4.50006531E-02, -2.57361066E-05,
                       7.15266054E-09, -7.72980731E-13, -3.94990865E+04,
                       1.48960343E+01])))

species(name='ibutenol',
        atoms='C:4 H:8 O:1',
        thermo=(NASA([10.00, 135.97],
                     [ 3.95714996E+00,  5.72646980E-03,  4.63611760E-04,
                      -3.04137514E-06,  6.85019471E-09, -2.26335067E+04,
                       8.21931848E+00]),
                NASA([135.97, 3000.00],
                     [ 3.32467612E+00,  3.69033556E-02, -1.89960416E-05,
                       4.73417677E-09, -4.59705291E-13, -2.26279280E+04,
                       9.58133237E+00])))

species(name='aQOOH[O]',
        atoms='C:4 H:9 O:3',
        thermo=(NASA([10.00, 488.36],
                     [ 3.54559533E+00,  3.89536133E-02,  8.47689703E-05,
                      -2.45147486E-07,  1.76157259E-10, -2.30028508E+04,
                       1.34685910E+01]),
                NASA([488.36, 3000.00],
                     [ 3.94214913E+00,  5.71928314E-02, -3.72516212E-05,
                       1.15209013E-08, -1.35808341E-12, -2.32978117E+04,
                       9.21628964E+00])))

species(name='ipropyl',
        atoms='C:3 H:7',
        thermo=(NASA([10.00, 421.76],
                     [ 3.73943775E+00,  3.10070157E-02, -1.51196908E-04,
                       4.35367329E-07, -3.85565052E-10,  9.49213457E+03,
                       7.79448918E+00]),
                NASA([421.76, 3000.00],
                     [-4.74526725E-01,  3.20862468E-02, -1.67340747E-05,
                       4.21365136E-09, -4.13155573E-13,  1.01934458E+04,
                       2.85865912E+01])))

species(name='aRO2',
        atoms='C:4 H:9 O:3',
        thermo=(NASA([10.00, 670.36],
                     [ 3.45405325E+00,  4.74751311E-02,  9.77507759E-06,
                      -6.31019603E-08,  3.75500067E-11, -3.41422354E+04,
                       1.39284976E+01]),
                NASA([670.36, 3000.00],
                     [ 5.04137652E+00,  5.19952978E-02, -3.16472789E-05,
                       9.22798587E-09, -1.03598915E-12, -3.46694280E+04,
                       4.56056770E+00])))

species(name='O2',
        atoms='O:2',
        thermo=(NASA([10.00, 605.96],
                     [ 3.50743498E+00, -4.43860349E-04,  1.45938058E-06,
                       1.61509333E-09, -2.32050052E-12, -9.24756224E+02,
                       4.72183634E+00]),
                NASA([605.96, 3000.00],
                     [ 2.87462882E+00,  2.17840991E-03, -1.18262921E-06,
                       2.86910493E-10, -2.53297146E-14, -8.19517838E+02,
                       7.69331810E+00])))

species(name='formic_acid',
        atoms='C:1 H:2 O:2',
        thermo=(NASA([10.00, 741.38],
                     [ 4.06855785E+00, -4.74562133E-03,  4.71797900E-05,
                      -6.07490052E-08,  2.51286794E-11, -4.66880837E+04,
                       6.53681035E+00]),
                NASA([741.38, 3000.00],
                     [ 1.13645847E+00,  1.74953124E-02, -1.08112403E-05,
                       3.08075326E-09, -3.34892658E-13, -4.64297918E+04,
                       1.86149484E+01])))

species(name='propene',
        atoms='C:3 H:6',
        thermo=(NASA([10.00, 519.53],
                     [ 3.98723879E+00,  4.72040503E-04,  6.51776229E-05,
                      -9.89891002E-08,  4.91141123E-11,  3.29534117E+03,
                       6.98071210E+00]),
                NASA([519.53, 3000.00],
                     [ 3.79893331E-01,  2.82457690E-02, -1.50108430E-05,
                       3.90894069E-09, -4.00521928E-13,  3.67016852E+03,
                       2.20218922E+01])))

species(name='aQOOHg',
        atoms='C:4 H:9 O:3',
        thermo=(NASA([10.00, 455.48],
                     [ 3.62522127E+00,  2.83222320E-02,  2.08527447E-04,
                      -5.67427418E-07,  4.35169138E-10, -2.45027511E+04,
                       1.26617758E+01]),
                NASA([455.48, 3000.00],
                     [ 5.13914202E+00,  5.96270859E-02, -4.14435328E-05,
                       1.34202375E-08, -1.63474553E-12, -2.51033074E+04,
                       1.46991116E+00])))

species(name='ibut_peroxyacid',
        atoms='C:4 H:8 O:3',
        thermo=(NASA([10.00, 1386.21],
                     [ 3.50995385E+00,  4.78670384E-02, -2.40781384E-05,
                       3.71046938E-09,  3.85442115E-13, -4.73114774E+04,
                       1.22017268E+01]),
                NASA([1386.21, 3000.00],
                     [ 1.24543146E+01,  3.02396862E-02, -1.38577031E-05,
                       3.05328904E-09, -2.63982457E-13, -5.05773607E+04,
                      -3.67061828E+01])))

species(name='HO2',
        atoms='H:1 O:2',
        thermo=(NASA([10.00, 891.11],
                     [ 4.02887004E+00, -1.75769289E-03,  1.08726004E-05,
                      -1.13812972E-08,  3.90113097E-12,  4.95165001E+02,
                       4.69302008E+00]),
                NASA([891.11, 3000.00],
                     [ 3.06571044E+00,  4.28505005E-03, -2.19325920E-06,
                       5.58882699E-10, -5.61246669E-14,  5.98557610E+02,
                       8.84564156E+00])))

species(name='CH3',
        atoms='C:1 H:3',
        thermo=(NASA([10.00, 616.77],
                     [ 3.98929952E+00,  5.45150461E-04,  9.01320092E-06,
                      -1.08320497E-08,  4.38985879E-12,  1.65859883E+04,
                       2.22446886E-01]),
                NASA([616.77, 3000.00],
                     [ 3.35928237E+00,  4.63117126E-03, -9.24365433E-07,
                      -9.02514624E-11,  3.56905106E-14,  1.66637014E+04,
                       2.95743732E+00])))

#-------------------------------------------------------------------------------
# Reaction data
#-------------------------------------------------------------------------------

# Reaction 1
chebyshev_reaction('aQOOH[O] (+ M) <=> aQOOHb (+ M)',
                   Tmin=180.0, Tmax=1500.0,
                   Pmin=(0.01, 'atm'), Pmax=(98.692, 'atm'),
                   coeffs=[[-9.54000e+00,  6.66900e+00, -7.19500e-01, -2.79500e-01,  1.01400e-01,  2.17900e-02, -1.93100e-02, -7.60500e-04],
                           [-5.11900e+00, -1.23700e+00,  1.06400e+00,  1.78200e-01, -1.45000e-01, -6.72900e-03,  2.36700e-02, -2.47300e-03],
                           [-3.45800e+00, -3.81200e-01,  1.16500e-02,  7.18000e-02, -3.60000e-03, -1.46000e-02,  1.96200e-03,  2.83800e-03],
                           [-1.48900e+00, -1.69500e-01, -6.83400e-02,  3.50200e-03,  3.81500e-03, -2.64300e-03, -3.20200e-05,  1.33800e-03],
                           [-6.24300e-01, -3.41600e-02, -3.12500e-02, -7.18200e-03, -2.37600e-03, -2.16700e-03, -1.38800e-04,  6.47400e-04],
                           [-2.17400e-01, -1.26500e-02, -6.71200e-03,  9.10500e-04, -6.49500e-05, -1.89300e-03, -1.02500e-03,  4.72600e-05],
                           [-1.31200e-01,  1.68200e-02, -1.15900e-05,  3.88300e-03,  3.05300e-03,  7.26000e-05, -7.27100e-04, -2.72100e-04],
                           [-3.51300e-02, -5.16200e-03, -3.49800e-03,  7.89000e-04,  1.79100e-03,  6.12700e-04,  3.36000e-05, -4.80800e-05],
                           [-1.58500e-03, -5.51300e-03, -3.75000e-03, -2.21000e-03, -1.24900e-04,  3.50800e-04,  1.47800e-06,  5.19100e-05],
                           [-2.31300e-02, -2.96200e-03,  8.31400e-04,  1.10700e-03, -3.49100e-04, -3.99600e-04,  8.37900e-05,  3.88200e-05]])

# Reaction 2
chebyshev_reaction('aQOOHg (+ M) <=> aQOOHb (+ M)',
                   Tmin=180.0, Tmax=1500.0,
                   Pmin=(0.01, 'atm'), Pmax=(98.692, 'atm'),
                   coeffs=[[-9.47100e+00,  4.78100e+00, -5.00500e-01, -1.89700e-01,  3.70000e-02, -9.73900e-04, -3.52700e-03,  4.42800e-03],
                           [-2.53600e+00,  2.15300e-01,  1.07500e+00,  1.11400e-01, -1.14600e-01,  5.45600e-03,  1.04900e-02, -5.94900e-03],
                           [-3.25600e+00, -8.91100e-01, -1.32200e-01,  1.42500e-01,  4.26500e-02, -9.12100e-03, -3.78700e-03,  6.13500e-04],
                           [-1.69000e+00, -5.61500e-01, -2.42800e-01,  1.23500e-03,  1.96600e-02, -2.58000e-04,  8.87400e-05,  2.17600e-03],
                           [-6.02100e-01, -1.86700e-01, -9.82800e-02, -2.58400e-02, -8.64700e-03, -3.55300e-04,  2.41400e-03,  4.48500e-04],
                           [-2.05700e-01,  8.47100e-02, -2.18400e-02, -1.83000e-02, -2.13600e-03, -1.25500e-04, -1.06700e-03, -3.13900e-04],
                           [-3.75900e-02,  6.40700e-02,  2.42000e-02,  3.77800e-03, -2.41500e-03, -1.34200e-03, -1.27800e-04,  3.67500e-05],
                           [-3.28800e-02,  4.52900e-02,  1.73500e-02,  5.66400e-03,  1.04000e-03, -7.59200e-04, -3.10700e-04,  2.37600e-04],
                           [-1.91400e-02, -8.49800e-03,  4.31400e-03,  5.10100e-03,  1.49900e-03, -2.85000e-04, -2.49700e-04,  2.89500e-05],
                           [-1.81000e-02, -1.38400e-02, -9.21100e-03, -3.80600e-04,  2.29700e-03,  6.11300e-04, -3.87400e-04, -1.49800e-04]])

# Reaction 3
chebyshev_reaction('aRO2 (+ M) <=> aQOOHb (+ M)',
                   Tmin=180.0, Tmax=1500.0,
                   Pmin=(0.01, 'atm'), Pmax=(98.692, 'atm'),
                   coeffs=[[-9.69800e+00,  2.11400e+00, -1.23800e-01,  3.50500e-02,  5.69200e-03, -4.67400e-03, -6.27900e-04, -3.18900e-04],
                           [ 2.74400e+00,  1.02600e+00,  4.65800e-01,  7.31100e-03, -2.05600e-02,  3.14800e-03, -9.82800e-04, -5.76300e-04],
                           [-3.44800e+00,  3.94300e-02,  2.44300e-02,  3.32600e-02,  1.81700e-02, -2.09800e-03, -2.83900e-03,  3.86400e-04],
                           [-1.69600e+00, -2.49900e-01, -1.20700e-01, -2.53200e-02,  1.00300e-02,  5.69300e-03, -2.75300e-05, -2.80900e-04],
                           [-7.52800e-01, -6.83500e-02, -1.04400e-01, -3.52700e-02, -1.75300e-03,  7.53000e-04,  9.19900e-04,  7.53400e-04],
                           [-2.48900e-01,  5.15400e-03, -2.09300e-02, -1.47700e-02, -5.13600e-03, -1.54800e-03, -9.77300e-05,  3.95100e-04],
                           [-8.31900e-02,  3.29700e-02,  1.00100e-02, -1.41500e-03, -1.29500e-03, -6.43300e-04, -3.42900e-04, -3.29300e-05],
                           [-2.82900e-02,  2.93600e-02,  1.04500e-02,  1.50500e-03,  2.40500e-04, -8.48500e-06, -7.22700e-06,  1.66900e-05],
                           [-1.84300e-02,  2.62300e-02,  4.91700e-04,  1.77800e-03,  8.94700e-04, -2.40000e-04,  3.66600e-05,  4.33900e-05],
                           [-2.43300e-03,  5.68500e-03,  4.99300e-04,  1.60200e-03,  5.88200e-04, -4.17800e-05, -2.65500e-05, -6.20700e-05]])

# Reaction 4
chebyshev_reaction('aadduct (+ M) <=> aQOOHb (+ M)',
                   Tmin=180.0, Tmax=1500.0,
                   Pmin=(0.01, 'atm'), Pmax=(98.692, 'atm'),
                   coeffs=[[-1.14600e+01,  2.43500e+00, -3.21200e-01, -8.51000e-02,  1.83600e-02,  1.77600e-02, -5.04200e-04, -5.43900e-03],
                           [-3.16300e+00,  2.90800e-02,  5.75000e-01,  1.41500e-01, -3.07000e-02, -1.73400e-02, -1.56000e-03,  3.70500e-03],
                           [-3.99600e+00, -2.13000e-01, -6.54100e-02,  2.48300e-02,  2.88200e-02,  4.71300e-03, -3.89600e-03, -1.80300e-03],
                           [-1.74800e+00, -6.93500e-02, -4.29600e-02, -2.73300e-02, -2.04200e-03,  4.60700e-03,  1.08000e-03, -3.95500e-04],
                           [-8.09200e-01,  1.40900e-02, -3.90900e-02, -2.40600e-02, -6.15000e-03,  3.05300e-04,  1.26100e-03,  4.32400e-04],
                           [-2.40600e-01, -4.07700e-02, -2.82900e-02, -2.06300e-02, -8.75200e-03,  5.47000e-04,  1.44700e-03,  2.35100e-04],
                           [-1.52300e-01,  3.16600e-02,  1.94500e-02, -5.44900e-03, -5.28600e-03, -5.05700e-04,  1.84700e-04, -8.87500e-05],
                           [-7.72100e-02,  2.59000e-02,  1.92000e-02,  9.24400e-03,  1.96200e-03,  1.34600e-04, -4.24300e-04, -4.83500e-04],
                           [ 2.23700e-02,  2.49600e-02,  1.75900e-03,  5.57900e-04, -5.77500e-04, -1.45800e-04,  6.12800e-04,  2.26700e-04],
                           [ 4.01200e-02, -5.37800e-03, -2.84400e-03,  1.88800e-03,  6.91300e-05, -5.53300e-04, -1.17300e-04, -2.57700e-05]])

# Reaction 5
chebyshev_reaction('O2 + aR (+ M) <=> aQOOHb (+ M)',
                   Tmin=180.0, Tmax=1500.0,
                   Pmin=(0.01, 'atm'), Pmax=(98.692, 'atm'),
                   coeffs=[[-7.44000e+00,  1.00900e+01,  7.31700e-02, -8.44500e-01, -1.26900e-01,  1.14000e-01,  3.57800e-02, -2.35900e-02],
                           [-1.08200e+00, -4.55500e+00,  1.21100e+00,  8.21600e-01, -2.79300e-02, -1.50400e-01, -2.77400e-02,  3.76200e-02],
                           [-1.47100e+00, -8.18400e-01, -2.22800e-01,  1.35100e-01,  7.20500e-02,  1.32100e-03, -8.87400e-04, -1.26500e-02],
                           [-6.52900e-01, -2.97000e-01, -1.56900e-01, -4.18000e-02,  2.26500e-02,  1.89000e-02, -1.13300e-02,  2.72300e-03],
                           [-2.27100e-01, -6.04000e-02, -4.17800e-02, -1.67300e-02, -1.00200e-02, -5.40100e-04,  8.00400e-03, -4.48900e-03],
                           [-9.73500e-02,  3.39700e-02,  9.29400e-04, -4.74400e-03,  2.19100e-03, -9.31100e-04, -2.71400e-03,  2.24900e-03],
                           [-5.06300e-02,  1.88000e-02, -2.19300e-03,  9.42000e-03, -1.21100e-03,  6.00300e-04,  1.72100e-03, -1.58600e-03],
                           [-2.64400e-02, -3.13800e-03, -2.51600e-03, -2.69300e-03,  2.85600e-03,  7.58600e-04, -6.41700e-04,  9.39400e-04],
                           [-7.16500e-03, -8.27800e-03, -4.08500e-03, -3.40100e-03,  3.64600e-05, -2.40700e-04,  4.65300e-04, -8.42300e-05],
                           [-3.06700e-04, -5.30400e-04, -2.62100e-03, -6.76300e-04, -1.22300e-03, -2.18300e-04,  8.14800e-05, -8.69900e-05]])
#  aQOOHb(+M) <=> aQOOH[O](+M)                         1.000e+00 0.000     0.000
#      TCHEB/ 180.000   1500.000 /
#      PCHEB/ 0.010     98.692   /
#      CHEB/ 10 8/
#      CHEB/ -1.721e+01   6.669e+00    -7.195e-01   -2.795e-01   1.014e-01   /
#      CHEB/ 2.179e-02    -1.931e-02   -7.605e-04   -4.441e-01   -1.237e+00  /
#      CHEB/ 1.064e+00    1.782e-01    -1.450e-01   -6.729e-03   2.367e-02   /
#      CHEB/ -2.473e-03   -3.381e+00   -3.812e-01   1.165e-02    7.180e-02   /
#      CHEB/ -3.600e-03   -1.460e-02   1.962e-03    2.838e-03    -1.443e+00  /
#      CHEB/ -1.695e-01   -6.834e-02   3.502e-03    3.815e-03    -2.643e-03  /
#      CHEB/ -3.202e-05   1.338e-03    -6.089e-01   -3.416e-02   -3.125e-02  /
#      CHEB/ -7.182e-03   -2.376e-03   -2.167e-03   -1.388e-04   6.474e-04   /
#      CHEB/ -2.126e-01   -1.265e-02   -6.712e-03   9.105e-04    -6.495e-05  /
#      CHEB/ -1.893e-03   -1.025e-03   4.726e-05    -1.294e-01   1.682e-02   /
#      CHEB/ -1.159e-05   3.883e-03    3.053e-03    7.260e-05    -7.271e-04  /
#      CHEB/ -2.721e-04   -3.441e-02   -5.162e-03   -3.498e-03   7.890e-04   /
#      CHEB/ 1.791e-03    6.127e-04    3.360e-05    -4.808e-05   -1.390e-03  /
#      CHEB/ -5.513e-03   -3.750e-03   -2.210e-03   -1.249e-04   3.508e-04   /
#      CHEB/ 1.478e-06    5.191e-05    -2.312e-02   -2.962e-03   8.314e-04   /
#      CHEB/ 1.107e-03    -3.491e-04   -3.996e-04   8.379e-05    3.882e-05   /

# Reaction 6
chebyshev_reaction('aQOOHg (+ M) <=> aQOOH[O] (+ M)',
                   Tmin=180.0, Tmax=1500.0,
                   Pmin=(0.01, 'atm'), Pmax=(98.692, 'atm'),
                   coeffs=[[-8.11200e+00,  2.90400e+00, -1.67100e-01, -1.54200e-02, -7.23500e-03,  1.49200e-03,  1.48200e-03,  1.03200e-04],
                           [-3.00200e+00,  8.19700e-01, -4.17500e-02,  2.67800e-02,  1.82600e-02, -2.83200e-03, -2.34200e-03,  3.91400e-04],
                           [-3.70400e+00,  6.46600e-02,  1.66900e-02, -2.49300e-02,  3.09800e-03,  2.65100e-03, -4.12200e-04, -8.51100e-04],
                           [-1.88400e+00, -1.69200e-01,  1.11900e-02,  9.34900e-04, -1.73900e-03,  1.38500e-03,  9.72100e-04,  8.59600e-05],
                           [-8.09400e-01, -1.26300e-01, -2.99800e-02, -2.28200e-03, -1.30000e-03, -1.20000e-03,  5.62200e-04,  5.67600e-04],
                           [-2.59500e-01, -1.48200e-02, -2.24500e-02, -1.23500e-02, -1.76100e-03, -7.01400e-04, -6.81300e-04,  1.09200e-04],
                           [-1.00100e-01,  5.53100e-02,  1.51400e-02, -3.88800e-03, -3.39300e-03, -4.53600e-04, -1.93700e-04, -2.86500e-04],
                           [-2.12100e-02,  3.95200e-02,  1.94400e-02,  5.18300e-03, -7.28100e-04, -6.86200e-04, -7.59000e-05, -4.02100e-05],
                           [-7.39500e-03, -1.94800e-03,  8.57000e-03,  6.45100e-03,  1.57300e-03,  7.06100e-05, -1.25600e-04, -8.05200e-06],
                           [-4.46600e-02, -1.29300e-02, -4.76900e-03,  2.49700e-03,  2.61800e-03,  6.72300e-04,  6.07900e-05, -2.10700e-06]])

# Reaction 7
chebyshev_reaction('aRO2 (+ M) <=> aQOOH[O] (+ M)',
                   Tmin=180.0, Tmax=1500.0,
                   Pmin=(0.01, 'atm'), Pmax=(98.692, 'atm'),
                   coeffs=[[-1.51800e+01,  6.82200e+00, -5.85100e-01, -4.26300e-01,  1.17900e-01,  5.43500e-02, -2.93300e-02, -5.35700e-03],
                           [ 6.92500e+00, -2.08000e+00,  7.78400e-01,  2.93600e-01, -1.88700e-01, -2.83600e-02,  4.39700e-02, -6.36700e-04],
                           [-3.83100e+00, -1.54300e-01, -4.39500e-02,  6.97000e-02,  1.66900e-02, -2.48000e-02, -3.51700e-03,  6.37100e-03],
                           [-1.78200e+00, -1.56100e-01, -4.70700e-02,  1.98300e-02,  1.99700e-02, -2.75500e-03, -4.98600e-03,  8.41400e-04],
                           [-8.10100e-01, -1.12700e-01, -4.71600e-02, -2.35900e-03,  7.85000e-03,  2.32400e-03, -1.45700e-03, -4.64300e-04],
                           [-2.86500e-01, -6.48200e-02, -3.06200e-02, -8.53600e-03,  2.08300e-04,  8.07400e-04, -1.62600e-04, -1.47600e-04],
                           [-1.30300e-01,  2.07400e-02, -3.23500e-03, -4.35500e-03, -2.01900e-03, -3.75800e-04,  2.03400e-05, -6.10200e-06],
                           [-2.03000e-02,  2.51300e-02,  9.19000e-03,  7.80100e-04, -1.15700e-03, -8.76300e-04, -1.03800e-04,  9.34500e-05],
                           [ 8.79800e-04,  1.85800e-02,  8.91100e-03,  1.85300e-03,  1.82200e-04,  8.97100e-05, -2.14200e-04, -1.14600e-04],
                           [-2.90900e-02,  2.57000e-03,  4.44200e-03,  3.52900e-03,  1.17500e-03,  1.18300e-04,  9.48300e-05, -6.58800e-05]])

# Reaction 8
chebyshev_reaction('aadduct (+ M) <=> aQOOH[O] (+ M)',
                   Tmin=180.0, Tmax=1500.0,
                   Pmin=(0.01, 'atm'), Pmax=(98.692, 'atm'),
                   coeffs=[[-1.69900e+01,  7.21600e+00, -8.02500e-01, -5.45700e-01,  1.35900e-01,  7.60100e-02, -2.98600e-02, -1.01100e-02],
                           [ 9.27100e-01, -2.95500e+00,  8.37300e-01,  4.21600e-01, -1.91800e-01, -5.09000e-02,  4.21900e-02,  4.41800e-03],
                           [-4.45000e+00, -2.95900e-01, -1.68500e-01,  5.94300e-02,  3.52900e-02, -1.93000e-02, -5.74100e-03,  4.77900e-03],
                           [-1.88900e+00,  1.05900e-01,  4.45400e-03,  1.48300e-02,  1.36900e-02, -4.89200e-03, -4.82600e-03,  1.23900e-03],
                           [-9.04900e-01,  2.29600e-02,  5.34900e-04,  5.42400e-03,  7.41100e-03,  1.27800e-03, -1.82900e-03, -4.44200e-04],
                           [-3.01400e-01, -7.70400e-02, -4.69000e-02, -1.68300e-02, -7.48900e-04,  2.64200e-03,  8.51500e-04, -1.10000e-04],
                           [-2.12900e-01,  3.78800e-02,  1.85600e-03, -1.03800e-02, -4.46500e-03, -2.45500e-04,  2.19300e-04,  3.67500e-05],
                           [-7.63100e-02,  3.10600e-02,  1.62700e-02,  7.10100e-03,  1.35000e-03, -6.59400e-04, -7.26200e-04, -3.71200e-04],
                           [ 3.81200e-02,  2.16200e-02,  9.69100e-03, -2.96500e-04, -9.34000e-04,  2.87600e-04,  2.48000e-04,  6.95400e-05],
                           [ 1.19200e-02, -6.35800e-03,  1.25400e-03,  3.34200e-03,  7.96800e-04, -3.12900e-04, -5.77300e-05, -3.93000e-05]])

# Reaction 9
chebyshev_reaction('O2 + aR (+ M) <=> aQOOH[O] (+ M)',
                   Tmin=180.0, Tmax=1500.0,
                   Pmin=(0.01, 'atm'), Pmax=(98.692, 'atm'),
                   coeffs=[[-2.21300e+00,  2.92500e+00,  3.87900e-01,  2.12200e-02, -7.29500e-02, -3.30100e-02,  7.47600e-03,  1.27600e-02],
                           [-2.81300e+00, -9.73700e-01, -3.53600e-01,  5.17500e-02,  1.19700e-01,  3.71200e-02, -2.05100e-02, -1.99400e-02],
                           [-1.56800e+00,  8.05500e-02,  9.25800e-03, -4.45700e-02, -3.08700e-02,  7.55100e-03,  1.88600e-02,  6.09500e-03],
                           [-7.04300e-01,  3.23900e-02, -3.09500e-03, -1.48800e-03,  6.84500e-04, -4.50100e-03, -3.60200e-03,  2.12400e-03],
                           [-3.75500e-01,  1.30900e-02,  6.69300e-03, -3.02700e-03, -5.83200e-03, -2.54800e-03,  1.05500e-04,  3.66900e-05],
                           [-1.40500e-01, -2.03600e-02, -3.74500e-03, -1.77200e-03, -2.01500e-03, -1.29400e-03, -1.14100e-03, -6.87600e-04],
                           [-8.89100e-02,  7.14400e-03, -1.41300e-03,  7.92900e-04,  1.02600e-03, -6.24900e-04, -8.47700e-04, -3.42600e-04],
                           [-1.18400e-02, -1.56200e-03,  6.92000e-04,  2.13300e-04,  1.46200e-04,  3.84100e-04,  2.30800e-04, -1.21500e-04],
                           [ 7.26000e-03, -2.30700e-03,  6.29400e-04, -2.02100e-04, -4.81500e-05,  4.72700e-04,  2.95900e-04,  2.24900e-05],
                           [-2.60000e-02,  2.20800e-03, -4.28100e-04,  1.61200e-03,  1.14500e-03, -9.68500e-05, -1.46900e-04,  1.64000e-04]])
#  aQOOHb(+M) <=> aQOOHg(+M)                           1.000e+00 0.000     0.000
#      TCHEB/ 180.000   1500.000 /
#      PCHEB/ 0.010     98.692   /
#      CHEB/ 10 8/
#      CHEB/ -1.531e+01   4.781e+00    -5.005e-01   -1.897e-01   3.700e-02   /
#      CHEB/ -9.739e-04   -3.527e-03   4.428e-03    8.513e-01    2.153e-01   /
#      CHEB/ 1.075e+00    1.114e-01    -1.146e-01   5.456e-03    1.049e-02   /
#      CHEB/ -5.949e-03   -3.033e+00   -8.911e-01   -1.322e-01   1.425e-01   /
#      CHEB/ 4.265e-02    -9.121e-03   -3.787e-03   6.135e-04    -1.596e+00  /
#      CHEB/ -5.615e-01   -2.428e-01   1.235e-03    1.966e-02    -2.580e-04  /
#      CHEB/ 8.874e-05    2.176e-03    -5.739e-01   -1.867e-01   -9.828e-02  /
#      CHEB/ -2.584e-02   -8.647e-03   -3.553e-04   2.414e-03    4.485e-04   /
#      CHEB/ -1.979e-01   8.471e-02    -2.184e-02   -1.830e-02   -2.136e-03  /
#      CHEB/ -1.255e-04   -1.067e-03   -3.139e-04   -3.508e-02   6.407e-02   /
#      CHEB/ 2.420e-02    3.778e-03    -2.415e-03   -1.342e-03   -1.278e-04  /
#      CHEB/ 3.675e-05    -3.215e-02   4.529e-02    1.735e-02    5.664e-03   /
#      CHEB/ 1.040e-03    -7.592e-04   -3.107e-04   2.376e-04    -1.912e-02  /
#      CHEB/ -8.498e-03   4.314e-03    5.101e-03    1.499e-03    -2.850e-04  /
#      CHEB/ -2.497e-04   2.895e-05    -1.824e-02   -1.384e-02   -9.211e-03  /
#      CHEB/ -3.806e-04   2.297e-03    6.113e-04    -3.874e-04   -1.498e-04  /
#  aQOOH[O](+M) <=> aQOOHg(+M)                         1.000e+00 0.000     0.000
#      TCHEB/ 180.000   1500.000 /
#      PCHEB/ 0.010     98.692   /
#      CHEB/ 10 8/
#      CHEB/ -6.281e+00   2.904e+00    -1.671e-01   -1.542e-02   -7.235e-03  /
#      CHEB/ 1.492e-03    1.482e-03    1.032e-04    -4.290e+00   8.197e-01   /
#      CHEB/ -4.175e-02   2.678e-02    1.826e-02    -2.832e-03   -2.342e-03  /
#      CHEB/ 3.914e-04    -3.558e+00   6.466e-02    1.669e-02    -2.493e-02  /
#      CHEB/ 3.098e-03    2.651e-03    -4.122e-04   -8.511e-04   -1.836e+00  /
#      CHEB/ -1.692e-01   1.119e-02    9.349e-04    -1.739e-03   1.385e-03   /
#      CHEB/ 9.721e-04    8.596e-05    -7.966e-01   -1.263e-01   -2.998e-02  /
#      CHEB/ -2.282e-03   -1.300e-03   -1.200e-03   5.622e-04    5.676e-04   /