units(length='cm', time='s', quantity='mol', act_energy='kcal/mol')

ideal_gas(name='gas',
          elements="H D T C Ci O Oi N Ne Ar He Si S F Cl Br I X",
          species="""propene3ol       OH               disub_c4ether
                     H2O              disub_epoxy      gQOOHa
                     propene1ol       gQOOHb           ipropylOOH
                     galdoxy          galkene          CH2O
                     O2               gRO2             gQOOHg
                     gR               galdol           monosub_c4ether
                     HO2              gQOOH[O]""",
          reactions='all',
          initial_state=state(temperature=300.0, pressure=OneAtm))

#-------------------------------------------------------------------------------
# Element data
#-------------------------------------------------------------------------------

element(symbol='Ci', atomic_mass=13.003)
element(symbol='D', atomic_mass=2.014)
element(symbol='Oi', atomic_mass=18.0)
element(symbol='T', atomic_mass=3.016)
element(symbol='X', atomic_mass=195.083)
#-------------------------------------------------------------------------------
# Species data
#-------------------------------------------------------------------------------

species(name='propene3ol',
        atoms='C:3 H:6 O:1',
        thermo=(NASA([10.00, 444.81],
                     [ 3.92769709E+00,  4.89977303E-03,  1.13094874E-04,
                      -2.59008187E-07,  1.86205760E-10, -1.74798671E+04,
                       9.90805416E+00]),
                NASA([444.81, 3000.00],
                     [ 2.61720343E+00,  3.01777872E-02, -1.76511625E-05,
                       5.14864061E-09, -5.91153761E-13, -1.74967676E+04,
                       1.36683107E+01])))

species(name='OH',
        atoms='H:1 O:1',
        thermo=(NASA([10.00, 984.14],
                     [ 3.49686242E+00,  1.83973160E-04, -9.97634499E-07,
                       1.56942783E-09, -6.10128175E-13,  3.41673934E+03,
                       1.48093120E+00]),
                NASA([984.14, 3000.00],
                     [ 3.45221464E+00, -2.95124034E-04,  7.39418622E-07,
                      -2.89309866E-10,  3.53041498E-14,  3.45751599E+03,
                       1.85813897E+00])))

species(name='disub_c4ether',
        atoms='C:4 H:8 O:2',
        thermo=(NASA([10.00, 413.50],
                     [ 3.78241323E+00,  1.89501763E-02,  8.65302396E-05,
                      -1.80580575E-07,  1.13656264E-10, -3.81435351E+04,
                       1.09982450E+01]),
                NASA([413.50, 3000.00],
                     [ 4.29420885E-01,  5.13851903E-02, -3.11292293E-05,
                       9.11498284E-09, -1.03192718E-12, -3.78662408E+04,
                       2.42134976E+01])))

species(name='H2O',
        atoms='H:2 O:1',
        thermo=(NASA([10.00, 773.84],
                     [ 4.00473541E+00, -2.39729134E-04,  8.11862955E-07,
                       1.47891862E-09, -1.19783539E-12, -3.03533807E+04,
                      -9.96254147E-02]),
                NASA([773.84, 3000.00],
                     [ 3.52133374E+00,  1.05377009E-03,  6.40722099E-07,
                      -3.86240235E-10,  5.49243294E-14, -3.02424794E+04,
                       2.34173094E+00])))

species(name='disub_epoxy',
        atoms='C:4 H:8 O:2',
        thermo=(NASA([10.00, 549.41],
                     [ 3.89863211E+00,  5.97532637E-03,  1.66685676E-04,
                      -3.10743768E-07,  1.78330192E-10, -3.65100612E+04,
                       1.13847308E+01]),
                NASA([549.41, 3000.00],
                     [-6.40277648E-01,  6.05960003E-02, -4.13427220E-05,
                       1.31555461E-08, -1.57685017E-12, -3.63369444E+04,
                       2.76005436E+01])))

species(name='gQOOHa',
        atoms='C:4 H:9 O:3',
        thermo=(NASA([10.00, 160.74],
                     [ 3.80808147E+00,  2.31043884E-02,  5.26945984E-04,
                      -3.11500696E-06,  6.03881958E-09, -2.45288604E+04,
                       1.17645316E+01]),
                NASA([160.74, 3000.00],
                     [ 2.90630300E+00,  6.50241173E-02, -4.60073244E-05,
                       1.51330930E-08, -1.87074267E-12, -2.45250358E+04,
                       1.36838819E+01])))

species(name='propene1ol',
        atoms='C:3 H:6 O:1',
        thermo=(NASA([10.00, 459.42],
                     [ 3.91245344E+00,  5.85800161E-03,  1.15412006E-04,
                      -2.68014417E-07,  1.91800131E-10, -2.01850189E+04,
                       8.14807684E+00]),
                NASA([459.42, 3000.00],
                     [ 3.14049093E+00,  2.95550898E-02, -1.73843684E-05,
                       5.11506211E-09, -5.92966137E-13, -2.02932414E+04,
                       9.32215170E+00])))

species(name='gQOOHb',
        atoms='C:4 H:9 O:3',
        thermo=(NASA([10.00, 1018.67],
                     [ 3.99028351E+00,  4.29665712E-02,  2.28338778E-05,
                      -5.67914439E-08,  2.29383258E-11, -2.28977615E+04,
                       1.20326731E+01]),
                NASA([1018.67, 3000.00],
                     [ 1.38304153E+01,  3.88527019E-02, -2.19473905E-05,
                       5.78719895E-09, -5.85097740E-13, -2.66938463E+04,
                      -4.44147388E+01])))

species(name='ipropylOOH',
        atoms='C:3 H:7 O:2',
        thermo=(NASA([10.00, 405.01],
                     [ 3.30075623E+00,  7.58672756E-02, -3.35754269E-04,
                       8.05972164E-07, -6.68864582E-10, -6.80551016E+02,
                       1.43372849E+01]),
                NASA([405.01, 3000.00],
                     [ 2.51742509E+00,  3.72760950E-02, -2.12450220E-05,
                       5.83593926E-09, -6.22110649E-13, -2.37143410E+02,
                       2.20991392E+01])))

species(name='galdoxy',
        atoms='C:4 H:7 O:2',
        thermo=(NASA([10.00, 209.62],
                     [ 3.82641108E+00,  1.84758886E-02,  3.43073800E-04,
                      -1.82817005E-06,  2.98516720E-09, -1.87163742E+04,
                       1.17972706E+01]),
                NASA([209.62, 3000.00],
                     [ 4.22049016E+00,  4.03370149E-02, -2.36129482E-05,
                       6.72979114E-09, -7.47862493E-13, -1.87974439E+04,
                       8.97211724E+00])))

species(name='galkene',
        atoms='C:4 H:8 O:1',
        thermo=(NASA([10.00, 383.47],
                     [ 3.84035604E+00,  1.20378740E-02,  1.87486319E-04,
                      -5.44759148E-07,  4.80711015E-10, -2.03671952E+04,
                       1.02570291E+01]),
                NASA([383.47, 3000.00],
                     [ 4.00413385E+00,  3.79025144E-02, -2.15435710E-05,
                       6.15213311E-09, -6.97446345E-13, -2.05824846E+04,
                       6.98052628E+00])))

species(name='CH2O',
        atoms='C:1 H:2 O:1',
        thermo=(NASA([10.00, 601.31],
                     [ 4.03190845E+00, -1.93233367E-03,  8.89743345E-06,
                       2.98105926E-09, -7.90813886E-12, -1.42276270E+04,
                       3.47574660E+00]),
                NASA([601.31, 3000.00],
                     [ 1.40134195E+00,  9.48858016E-03, -4.43088317E-06,
                       9.48452194E-10, -7.43790219E-14, -1.38013869E+04,
                       1.57423780E+01])))

species(name='O2',
        atoms='O:2',
        thermo=(NASA([10.00, 605.96],
                     [ 3.50743498E+00, -4.43860349E-04,  1.45938058E-06,
                       1.61509333E-09, -2.32050052E-12, -9.24756224E+02,
                       4.72183634E+00]),
                NASA([605.96, 3000.00],
                     [ 2.87462882E+00,  2.17840991E-03, -1.18262921E-06,
                       2.86910493E-10, -2.53297146E-14, -8.19517838E+02,
                       7.69331810E+00])))

species(name='gRO2',
        atoms='C:4 H:9 O:3',
        thermo=(NASA([10.00, 177.33],
                     [ 3.70632176E+00,  3.49733664E-02,  4.64036392E-04,
                      -3.18637835E-06,  6.38178607E-09, -2.81736752E+04,
                       1.24459269E+01]),
                NASA([177.33, 3000.00],
                     [ 4.82062697E+00,  5.17179689E-02, -3.18386818E-05,
                       9.52247045E-09, -1.10180288E-12, -2.82790457E+04,
                       7.14082953E+00])))

species(name='gQOOHg',
        atoms='C:4 H:9 O:3',
        thermo=(NASA([10.00, 475.03],
                     [ 3.42273720E+00,  4.98344215E-02,  6.47820920E-05,
                      -2.49842966E-07,  1.98636537E-10, -1.94992086E+04,
                       1.41578583E+01]),
                NASA([475.03, 3000.00],
                     [ 5.94049074E+00,  5.53778585E-02, -3.71708255E-05,
                       1.17540477E-08, -1.40812095E-12, -2.00401629E+04,
                       7.09201218E-01])))

species(name='gR',
        atoms='C:4 H:9 O:1',
        thermo=(NASA([10.00, 638.24],
                     [ 3.37074633E+00,  5.17529751E-02, -6.54872940E-05,
                       6.88084237E-08, -3.21569794E-11, -8.00642339E+03,
                       1.14339669E+01]),
                NASA([638.24, 3000.00],
                     [ 3.99410860E+00,  4.06314915E-02, -2.23932510E-05,
                       6.08356263E-09, -6.49884708E-13, -7.93904867E+03,
                       9.85769960E+00])))

species(name='galdol',
        atoms='C:4 H:8 O:2',
        thermo=(NASA([10.00, 506.68],
                     [ 3.85380874E+00,  9.21272695E-03,  1.86712348E-04,
                      -3.96417049E-07,  2.55528268E-10, -4.52943597E+04,
                       1.24312743E+01]),
                NASA([506.68, 3000.00],
                     [ 1.49710213E+00,  5.65979142E-02, -3.87709084E-05,
                       1.23682052E-08, -1.48287964E-12, -4.54249691E+04,
                       1.85531759E+01])))

species(name='monosub_c4ether',
        atoms='C:4 H:8 O:2',
        thermo=(NASA([10.00, 380.36],
                     [ 3.47743996E+00,  6.08051311E-02, -2.78518945E-04,
                       8.23182713E-07, -7.87158031E-10, -3.42279475E+04,
                       1.06415154E+01]),
                NASA([380.36, 3000.00],
                     [-1.09346901E+00,  5.35985968E-02, -3.21081420E-05,
                       9.20818293E-09, -1.01830294E-12, -3.34803874E+04,
                       3.35312368E+01])))

species(name='HO2',
        atoms='H:1 O:2',
        thermo=(NASA([10.00, 891.11],
                     [ 4.02887004E+00, -1.75769289E-03,  1.08726004E-05,
                      -1.13812972E-08,  3.90113097E-12,  4.95165001E+02,
                       4.69302008E+00]),
                NASA([891.11, 3000.00],
                     [ 3.06571044E+00,  4.28505005E-03, -2.19325920E-06,
                       5.58882699E-10, -5.61246669E-14,  5.98557610E+02,
                       8.84564156E+00])))

species(name='gQOOH[O]',
        atoms='C:4 H:9 O:3',
        thermo=(NASA([10.00, 535.23],
                     [ 3.83107445E+00,  1.02302002E-02,  2.29377261E-04,
                      -4.59095575E-07,  2.77765018E-10, -1.80973575E+04,
                       1.41034859E+01]),
                NASA([535.23, 3000.00],
                     [-4.19283096E-01,  7.69784620E-02, -5.57279000E-05,
                       1.81378295E-08, -2.18295635E-12, -1.81434709E+04,
                       2.72711816E+01])))

#-------------------------------------------------------------------------------
# Reaction data
#-------------------------------------------------------------------------------

# Reaction 1
chebyshev_reaction('gQOOH[O] (+ M) <=> gRO2 (+ M)',
                   Tmin=180.0, Tmax=1500.0,
                   Pmin=(0.01, 'atm'), Pmax=(98.692, 'atm'),
                   coeffs=[[ 4.66900e+00,  9.30200e-01, -1.32100e-01,  2.68000e-02,  1.27300e-03, -1.10600e-03, -8.41300e-05,  1.61600e-04],
                           [-2.09800e+00,  1.17100e+00, -4.10700e-02,  6.05900e-03,  3.26000e-03,  5.19400e-06, -3.14800e-04,  1.13900e-04],
                           [-3.60000e+00,  3.52000e-01,  8.66000e-02,  7.83100e-03, -5.98800e-03,  4.97800e-04,  8.48800e-04, -1.51100e-04],
                           [-2.23200e+00, -1.92300e-02,  5.73800e-02,  1.58100e-02, -3.23400e-03, -1.26100e-03,  7.00300e-04,  6.41600e-05],
                           [-1.18000e+00, -8.13300e-02,  1.54300e-02,  5.35300e-03,  1.85800e-03, -4.51300e-04, -3.15100e-04,  4.55200e-05],
                           [-5.49800e-01, -5.62400e-02,  8.41000e-03, -2.80600e-03,  1.30800e-03,  6.61400e-04, -4.66900e-04, -1.05600e-04],
                           [-2.35300e-01, -4.43300e-02,  1.11500e-02,  1.46900e-03, -6.71400e-04,  4.31100e-05, -1.38600e-04, -1.16900e-05],
                           [-9.62800e-02, -5.68300e-02,  3.31100e-03,  8.52000e-03,  7.87100e-05, -9.91100e-04, -7.88100e-05,  1.64900e-04],
                           [-4.47300e-02, -6.48000e-02, -1.50700e-02,  9.09700e-03,  2.28200e-03, -9.62400e-04, -1.76100e-04,  1.84200e-04],
                           [-1.40500e-02, -5.14900e-02, -2.94300e-02,  2.04800e-03,  3.26900e-03, -2.33400e-05, -1.01100e-04,  7.17700e-05]])

# Reaction 2
chebyshev_reaction('gQOOHa (+ M) <=> gRO2 (+ M)',
                   Tmin=180.0, Tmax=1500.0,
                   Pmin=(0.01, 'atm'), Pmax=(98.692, 'atm'),
                   coeffs=[[ 3.25200e+00,  1.02000e+00, -6.93100e-02,  3.33600e-02, -4.24000e-03, -1.65100e-03,  8.75700e-04, -1.09200e-04],
                           [-4.33000e+00,  9.23100e-01,  1.72300e-01, -1.66500e-02,  1.24400e-03,  1.76000e-03, -1.04500e-03,  4.56300e-05],
                           [-3.66000e+00, -4.13000e-02,  1.35700e-01,  2.01200e-02, -5.63400e-03,  1.19400e-03,  1.04700e-04, -3.83400e-04],
                           [-1.73100e+00, -2.35500e-01, -1.15600e-02,  2.31400e-02,  6.22100e-03, -1.94000e-03, -3.84900e-04,  1.69000e-04],
                           [-7.70600e-01, -7.92700e-02, -3.19900e-02, -5.52100e-04,  6.80300e-03,  2.85300e-04, -1.01900e-03,  3.23000e-05],
                           [-3.88000e-01, -2.33800e-02,  1.56000e-02,  5.26900e-03, -1.18700e-03, -4.44000e-05, -5.73500e-05, -1.56500e-04],
                           [-2.35500e-01, -9.20700e-02,  1.29900e-02,  2.26800e-02,  1.23600e-03, -2.32200e-03, -1.66200e-04,  1.49300e-04],
                           [-1.29800e-01, -1.30000e-01, -3.01900e-02,  1.60300e-02,  8.00100e-03, -7.34300e-04, -1.02100e-03,  5.74700e-05],
                           [-5.49400e-02, -8.28300e-02, -5.14100e-02, -4.14400e-03,  6.37600e-03,  1.96800e-03, -4.63900e-04, -2.51500e-04],
                           [ 2.07600e-02, -1.55900e-02, -3.64400e-02, -1.23100e-02,  2.37000e-04,  1.56000e-03,  5.60700e-04, -9.57900e-05]])

# Reaction 3
chebyshev_reaction('gQOOHg (+ M) <=> gRO2 (+ M)',
                   Tmin=180.0, Tmax=1500.0,
                   Pmin=(0.01, 'atm'), Pmax=(98.692, 'atm'),
                   coeffs=[[ 4.21600e+00,  1.04000e+00, -8.10100e-02,  3.89300e-03, -6.83400e-04,  1.00900e-06,  2.76500e-04,  6.40000e-05],
                           [-1.92000e+00,  1.26500e+00,  3.93600e-02, -1.69400e-02, -2.64300e-03,  9.85600e-04,  4.85600e-04,  3.51300e-05],
                           [-3.02600e+00,  2.37600e-01,  1.26000e-01,  9.35400e-03, -7.45500e-03, -3.55200e-04,  7.29600e-04,  7.97700e-05],
                           [-1.84500e+00, -1.77900e-01,  4.52300e-02,  2.26200e-02,  1.13300e-03, -1.74600e-03, -1.33300e-04,  1.73100e-04],
                           [-9.73000e-01, -1.89100e-01, -1.36800e-02,  6.96800e-03,  4.87300e-03,  2.73400e-04, -5.41000e-04, -7.95900e-05],
                           [-4.67300e-01, -1.25700e-01, -5.09200e-03, -2.54700e-03, -2.01900e-04,  8.07800e-04,  8.82900e-05, -7.78000e-05],
                           [-2.26000e-01, -9.23500e-02,  1.05500e-02,  5.93200e-03, -2.98300e-03, -1.25700e-03,  1.77300e-04,  2.35000e-04],
                           [-9.74900e-02, -8.63700e-02,  3.24300e-03,  1.50000e-02,  5.28700e-04, -2.32300e-03, -5.02700e-04,  2.80700e-04],
                           [-3.68500e-02, -7.62300e-02, -1.85600e-02,  1.26300e-02,  4.84100e-03, -9.74400e-04, -7.70100e-04,  9.26800e-06],
                           [-3.68500e-03, -4.86300e-02, -3.39400e-02,  1.59000e-03,  5.23400e-03,  9.63500e-04, -2.26800e-04, -1.59600e-04]])

# Reaction 4
chebyshev_reaction('gQOOHb (+ M) <=> gRO2 (+ M)',
                   Tmin=180.0, Tmax=1500.0,
                   Pmin=(0.01, 'atm'), Pmax=(98.692, 'atm'),
                   coeffs=[[ 2.04200e-01,  1.14300e+00, -7.37400e-03, -4.96400e-03, -2.27400e-03, -1.18700e-04,  3.93500e-04, -1.39300e-06],
                           [-8.09900e-02,  1.67700e+00,  3.33600e-02, -4.23000e-03, -1.74300e-03, -6.39500e-04,  4.44500e-04, -2.48700e-05],
                           [-2.70800e+00,  6.16600e-01,  3.57300e-02,  2.29400e-02,  2.19100e-03, -1.16600e-03, -1.67700e-04, -7.72400e-05],
                           [-1.79500e+00, -3.36200e-02, -1.47200e-02,  3.04500e-02,  6.21300e-03, -6.28400e-04, -5.73100e-04, -1.16200e-04],
                           [-1.05400e+00, -1.82600e-01, -3.03300e-02,  1.33600e-02,  4.17300e-03,  6.78800e-04, -3.77900e-04, -1.01500e-04],
                           [-5.41800e-01, -1.28800e-01, -5.87600e-03,  5.47800e-04, -1.06300e-03,  6.21800e-04, -3.27500e-05,  2.37900e-05],
                           [-2.28700e-01, -7.73100e-02,  1.16200e-02,  1.46800e-03, -2.20300e-03, -4.08500e-04, -1.39300e-04,  1.19100e-04],
                           [-1.14500e-01, -5.89100e-02,  2.87200e-03,  5.84600e-03,  5.72500e-04, -7.31900e-04, -3.60000e-04,  8.46800e-05],
                           [-2.17300e-02, -5.12000e-02, -1.38300e-02,  4.43100e-03,  3.03300e-03, -2.31600e-04, -2.31500e-04,  3.47400e-05],
                           [-9.34100e-03, -3.15700e-02, -2.54300e-02, -7.86000e-04,  2.98300e-03,  3.52500e-04,  1.11100e-04,  3.84900e-05]])

# Reaction 5
chebyshev_reaction('O2 + gR (+ M) <=> gRO2 (+ M)',
                   Tmin=180.0, Tmax=1500.0,
                   Pmin=(0.01, 'atm'), Pmax=(98.692, 'atm'),
                   coeffs=[[ 1.15800e+01,  9.32500e-01, -2.60800e-01,  7.04500e-02, -1.57400e-02,  2.79600e-03, -2.18300e-04,  1.41200e-06],
                           [-2.47700e+00,  1.36200e+00, -2.42500e-01,  1.64600e-02,  1.36200e-02, -7.38900e-03,  2.26900e-03, -2.89100e-04],
                           [-1.62100e+00,  8.01100e-01, -2.49700e-02, -3.91400e-02,  1.88200e-02, -4.00000e-03, -2.38700e-05,  3.84900e-04],
                           [-1.08000e+00,  3.49000e-01,  8.52800e-02, -4.06200e-02,  7.79000e-03,  1.06100e-03, -1.21300e-03,  2.90900e-04],
                           [-6.96100e-01,  6.51000e-02,  1.02100e-01, -1.71800e-02, -2.55100e-03,  2.41300e-03, -7.50600e-04, -8.80200e-05],
                           [-4.20700e-01, -8.03700e-02,  7.33400e-02,  4.14000e-03, -5.47300e-03,  8.44100e-04,  1.29300e-05, -1.80400e-04],
                           [-2.30400e-01, -1.29800e-01,  3.26500e-02,  1.45800e-02, -3.43300e-03, -9.28600e-04,  2.51000e-04, -8.18500e-06],
                           [-1.06700e-01, -1.21500e-01, -1.94000e-03,  1.51100e-02, -2.49100e-04, -1.58600e-03,  8.73200e-05,  1.66900e-04],
                           [-3.21900e-02, -8.68900e-02, -2.21900e-02,  9.03800e-03,  2.21300e-03, -1.29000e-03, -8.05500e-05,  2.08700e-04],
                           [ 5.08300e-03, -4.28000e-02, -3.03200e-02,  1.71900e-03,  2.78400e-03, -3.72900e-04, -1.16300e-04,  1.36200e-04]])
#  gRO2(+M) <=> gQOOH[O](+M)                           1.000e+00 0.000     0.000
#      TCHEB/ 180.000   1500.000 /
#      PCHEB/ 0.010     98.692   /
#      CHEB/ 10 8/
#      CHEB/ -9.431e+00   9.302e-01    -1.321e-01   2.680e-02    1.273e-03   /
#      CHEB/ -1.106e-03   -8.413e-05   1.616e-04    8.335e+00    1.171e+00   /
#      CHEB/ -4.107e-02   6.059e-03    3.260e-03    5.194e-06    -3.148e-04  /
#      CHEB/ 1.139e-04    -3.427e+00   3.520e-01    8.660e-02    7.831e-03   /
#      CHEB/ -5.988e-03   4.978e-04    8.488e-04    -1.511e-04   -2.107e+00  /
#      CHEB/ -1.923e-02   5.738e-02    1.581e-02    -3.234e-03   -1.261e-03  /
#      CHEB/ 7.003e-04    6.416e-05    -1.127e+00   -8.133e-02   1.543e-02   /
#      CHEB/ 5.353e-03    1.858e-03    -4.513e-04   -3.151e-04   4.552e-05   /
#      CHEB/ -5.307e-01   -5.624e-02   8.410e-03    -2.806e-03   1.308e-03   /
#      CHEB/ 6.614e-04    -4.669e-04   -1.056e-04   -2.291e-01   -4.433e-02  /
#      CHEB/ 1.115e-02    1.469e-03    -6.714e-04   4.311e-05    -1.386e-04  /
#      CHEB/ -1.169e-05   -9.436e-02   -5.683e-02   3.311e-03    8.520e-03   /
#      CHEB/ 7.871e-05    -9.911e-04   -7.881e-05   1.649e-04    -4.427e-02  /
#      CHEB/ -6.480e-02   -1.507e-02   9.097e-03    2.282e-03    -9.624e-04  /
#      CHEB/ -1.761e-04   1.842e-04    -1.408e-02   -5.149e-02   -2.943e-02  /
#      CHEB/ 2.048e-03    3.269e-03    -2.334e-05   -1.011e-04   7.177e-05   /

# Reaction 6
chebyshev_reaction('gQOOHa (+ M) <=> gQOOH[O] (+ M)',
                   Tmin=180.0, Tmax=1500.0,
                   Pmin=(0.01, 'atm'), Pmax=(98.692, 'atm'),
                   coeffs=[[-1.05000e+01,  1.13400e+00, -3.19900e-01, -2.73600e-02, -1.07800e-02,  7.58000e-03,  7.53100e-03, -2.20400e-03],
                           [ 2.20800e+00,  1.13300e+00,  2.71800e-01,  6.08000e-02, -3.63600e-03, -1.30300e-02, -7.43900e-03,  4.33500e-03],
                           [-4.68000e+00, -9.49100e-02,  1.07800e-01,  4.53000e-02,  8.44100e-03,  1.82900e-03, -1.98300e-03, -1.97800e-03],
                           [-2.32100e+00, -2.11900e-01, -6.66300e-02,  3.74000e-03,  9.06400e-03,  3.88400e-03,  1.60300e-03, -1.02800e-03],
                           [-9.57000e-01,  5.59700e-02, -3.95400e-02, -3.29600e-02, -1.22800e-03,  2.18400e-03,  1.34100e-03,  6.10000e-04],
                           [-3.99400e-01,  1.25200e-01,  5.05500e-02, -1.29200e-02, -1.01300e-02, -1.47100e-03,  3.52600e-04,  5.31200e-04],
                           [-2.15000e-01,  7.85300e-03,  5.81900e-02,  2.22300e-02, -3.55500e-03, -4.05900e-03, -7.28000e-04,  2.35700e-04],
                           [-1.25500e-01, -1.00600e-01,  2.66900e-03,  2.44000e-02,  7.36100e-03, -1.51500e-03, -1.44300e-03, -1.34500e-04],
                           [-6.67000e-02, -1.06500e-01, -3.92500e-02,  4.75500e-03,  7.13500e-03,  1.94300e-03, -3.66500e-04, -3.40000e-04],
                           [-1.82500e-02, -4.98200e-02, -4.35200e-02, -6.86900e-03,  9.72100e-04,  1.26400e-03,  9.21500e-04,  5.46300e-05]])

# Reaction 7
chebyshev_reaction('gQOOHg (+ M) <=> gQOOH[O] (+ M)',
                   Tmin=180.0, Tmax=1500.0,
                   Pmin=(0.01, 'atm'), Pmax=(98.692, 'atm'),
                   coeffs=[[-5.33300e+00,  6.03400e-01, -4.01300e-01,  2.42800e-02,  1.32400e-02, -1.65800e-03, -1.10200e-03,  2.35800e-04],
                           [-1.23100e-02,  1.86900e+00,  1.99900e-01, -4.72500e-02, -1.44300e-02,  5.02000e-03,  1.61400e-03, -3.31500e-04],
                           [-3.63600e+00,  3.99900e-02,  1.90800e-01,  5.63900e-02, -1.60200e-02, -6.16500e-03,  2.24900e-03,  8.67100e-04],
                           [-2.12100e+00, -3.38600e-01, -1.40600e-02,  4.07400e-02,  7.15000e-03, -2.83400e-03, -5.65500e-04,  1.12800e-04],
                           [-9.88500e-01, -1.50900e-01, -6.99800e-02, -1.37300e-02,  7.68500e-03,  3.49500e-03, -4.15600e-04, -5.50100e-04],
                           [-3.99200e-01,  2.87200e-02, -1.32200e-02, -2.66300e-02, -3.48200e-03,  2.55200e-03,  6.38300e-04, -1.41000e-04],
                           [-1.69300e-01,  5.09000e-02,  3.84900e-02, -3.16000e-03, -7.03800e-03, -1.61200e-03,  3.22500e-04,  3.61500e-04],
                           [-1.02700e-01, -1.94400e-02,  3.55500e-02,  1.91400e-02, -8.29600e-04, -3.18900e-03, -6.42100e-04,  3.16600e-04],
                           [-7.81100e-02, -8.26200e-02, -2.48500e-03,  2.05200e-02,  5.86300e-03, -1.26700e-03, -8.83500e-04, -2.21100e-05],
                           [-4.70500e-02, -8.76400e-02, -3.61700e-02,  5.64500e-03,  6.94000e-03,  1.22800e-03, -1.81300e-04, -1.88500e-04]])

# Reaction 8
chebyshev_reaction('gQOOHb (+ M) <=> gQOOH[O] (+ M)',
                   Tmin=180.0, Tmax=1500.0,
                   Pmin=(0.01, 'atm'), Pmax=(98.692, 'atm'),
                   coeffs=[[-1.08500e+01,  1.01600e+00, -2.48000e-01, -5.18900e-02,  1.43100e-02,  5.51100e-03, -2.17500e-03, -3.55900e-04],
                           [ 3.71200e+00,  1.91000e+00,  1.97800e-01,  4.80800e-02, -2.72500e-02, -6.57000e-03,  4.05100e-03,  5.43900e-04],
                           [-3.42500e+00,  1.62000e-01,  4.13800e-02,  7.34200e-02,  1.16800e-02, -5.77200e-03, -1.93500e-03,  5.03600e-04],
                           [-2.13900e+00, -1.92800e-01, -5.44100e-02,  1.64400e-02,  9.60600e-03,  2.49700e-03, -1.73400e-04, -5.72900e-04],
                           [-1.07200e+00, -8.48900e-02, -3.95300e-02, -1.53100e-02,  1.87200e-04,  1.73700e-03,  5.62300e-04, -2.72900e-05],
                           [-4.57800e-01,  1.77900e-02,  8.31200e-03, -1.49500e-02, -2.98600e-03,  1.79600e-04, -2.36400e-04,  3.63800e-05],
                           [-1.86200e-01,  2.63100e-02,  3.14500e-02,  4.27400e-05, -1.78500e-03, -6.98200e-04, -5.30700e-04, -7.94500e-06],
                           [-9.06700e-02, -2.22600e-02,  2.08500e-02,  1.23400e-02,  1.06400e-03, -1.08500e-03, -3.27100e-04,  5.66700e-05],
                           [-6.56500e-02, -5.91300e-02, -8.40900e-03,  1.20000e-02,  3.89200e-03, -5.35700e-04, -1.96300e-04,  1.11000e-04],
                           [-4.08400e-02, -6.26800e-02, -3.19600e-02,  2.68300e-03,  4.06000e-03,  4.92200e-04,  8.56200e-05,  3.83500e-05]])

# Reaction 9
chebyshev_reaction('O2 + gR (+ M) <=> gQOOH[O] (+ M)',
                   Tmin=180.0, Tmax=1500.0,
                   Pmin=(0.01, 'atm'), Pmax=(98.692, 'atm'),
                   coeffs=[[ 4.12600e+00,  9.80000e-01, -5.13500e-01,  2.69900e-03,  1.23800e-02,  6.22900e-03, -2.82500e-03, -1.05200e-04],
                           [-2.75900e+00,  1.09000e+00,  6.68900e-02,  6.16800e-02, -3.85300e-03, -1.90800e-02,  4.90400e-03,  1.38900e-03],
                           [-2.01100e+00,  4.49500e-01,  1.83200e-02, -3.77300e-02,  3.04800e-02, -1.43200e-03, -1.38500e-03, -4.54800e-04],
                           [-1.18400e+00,  1.53400e-01,  5.08500e-02, -5.99900e-02,  1.17700e-02,  2.65700e-03, -7.21400e-04,  8.90500e-04],
                           [-5.99600e-01,  6.99100e-02,  8.38800e-02, -4.14700e-02, -3.67600e-03,  2.97200e-03, -1.35100e-03,  6.52100e-04],
                           [-2.76500e-01,  2.51600e-02,  8.84500e-02, -1.24100e-02, -7.48100e-03,  1.72300e-03, -1.26200e-03,  9.42000e-05],
                           [-1.43400e-01, -2.31300e-02,  6.79600e-02,  8.92500e-03, -5.45300e-03,  3.77900e-04, -6.86000e-04,  3.01500e-05],
                           [-9.71900e-02, -7.20300e-02,  3.07700e-02,  1.86600e-02, -1.24100e-03, -5.26100e-04, -5.01700e-04,  2.66500e-04],
                           [-7.27300e-02, -9.74500e-02, -6.61100e-03,  1.53700e-02,  2.54100e-03, -3.46400e-04, -5.22900e-04,  3.15000e-04],
                           [-4.30400e-02, -8.23500e-02, -3.25000e-02,  5.24500e-03,  3.29100e-03,  6.91600e-04, -3.81400e-04,  1.52800e-04]])
#  gRO2(+M) <=> gQOOHa(+M)                             1.000e+00 0.000     0.000
#      TCHEB/ 180.000   1500.000 /
#      PCHEB/ 0.010     98.692   /
#      CHEB/ 10 8/
#      CHEB/ -1.981e+00   1.020e+00    -6.931e-02   3.336e-02    -4.240e-03  /
#      CHEB/ -1.651e-03   8.757e-04    -1.092e-04   -2.404e-01   9.231e-01   /
#      CHEB/ 1.723e-01    -1.665e-02   1.244e-03    1.760e-03    -1.045e-03  /
#      CHEB/ 4.563e-05    -3.498e+00   -4.130e-02   1.357e-01    2.012e-02   /
#      CHEB/ -5.634e-03   1.194e-03    1.047e-04    -3.834e-04   -1.656e+00  /
#      CHEB/ -2.355e-01   -1.156e-02   2.314e-02    6.221e-03    -1.940e-03  /
#      CHEB/ -3.849e-04   1.690e-04    -7.421e-01   -7.927e-02   -3.199e-02  /
#      CHEB/ -5.521e-04   6.803e-03    2.853e-04    -1.019e-03   3.230e-05   /
#      CHEB/ -3.782e-01   -2.338e-02   1.560e-02    5.269e-03    -1.187e-03  /
#      CHEB/ -4.440e-05   -5.735e-05   -1.565e-04   -2.326e-01   -9.207e-02  /
#      CHEB/ 1.299e-02    2.268e-02    1.236e-03    -2.322e-03   -1.662e-04  /
#      CHEB/ 1.493e-04    -1.292e-01   -1.300e-01   -3.019e-02   1.603e-02   /
#      CHEB/ 8.001e-03    -7.343e-04   -1.021e-03   5.747e-05    -5.494e-02  /
#      CHEB/ -8.283e-02   -5.141e-02   -4.144e-03   6.376e-03    1.968e-03   /
#      CHEB/ -4.639e-04   -2.515e-04   2.064e-02    -1.559e-02   -3.644e-02  /
#      CHEB/ -1.231e-02   2.370e-04    1.560e-03    5.607e-04    -9.579e-05  /
#  gQOOH[O](+M) <=> gQOOHa(+M)                         1.000e+00 0.000     0.000
#      TCHEB/ 180.000   1500.000 /
#      PCHEB/ 0.010     98.692   /
#      CHEB/ 10 8/
#      CHEB/ -1.637e+00   1.134e+00    -3.199e-01   -2.736e-02   -1.078e-02  /
#      CHEB/ 7.580e-03    7.531e-03    -2.204e-03   -4.136e+00   1.133e+00   /
#      CHEB/ 2.718e-01    6.080e-02    -3.636e-03   -1.303e-02   -7.439e-03  /
#      CHEB/ 4.335e-03    -4.691e+00   -9.491e-02   1.078e-01    4.530e-02   /
#      CHEB/ 8.441e-03    1.829e-03    -1.983e-03   -1.978e-03   -2.372e+00  /
#      CHEB/ -2.119e-01   -6.663e-02   3.740e-03    9.064e-03    3.884e-03   /
#      CHEB/ 1.603e-03    -1.028e-03   -9.822e-01   5.597e-02    -3.954e-02  /
#      CHEB/ -3.296e-02   -1.228e-03   2.184e-03    1.341e-03    6.100e-04   /
#      CHEB/ -4.087e-01   1.252e-01    5.055e-02    -1.292e-02   -1.013e-02  /
#      CHEB/ -1.471e-03   3.526e-04    5.312e-04    -2.183e-01   7.853e-03   /
#      CHEB/ 5.819e-02    2.223e-02    -3.555e-03   -4.059e-03   -7.280e-04  /
#      CHEB/ 2.357e-04    -1.268e-01   -1.006e-01   2.669e-03    2.440e-02   /
#      CHEB/ 7.361e-03    -1.515e-03   -1.443e-03   -1.345e-04   -6.717e-02  /
#      CHEB/ -1.065e-01   -3.925e-02   4.755e-03    7.135e-03    1.943e-03   /