units(length='cm', time='s', quantity='mol', act_energy='kcal/mol')

ideal_gas(name='gas',
          elements="H D T C Ci O Oi N Ne Ar He Si S F Cl Br I X",
          species="""OH             bQOOH[O]       acetone
                     H2O            balkoxyketone  ibutenol
                     trisub_epoxy   bQOOHg         CH2O
                     galkene        O2             bR
                     bQOOHa         bRO2           disub_epoxy
                     HO2""",
          reactions='all',
          initial_state=state(temperature=300.0, pressure=OneAtm))

#-------------------------------------------------------------------------------
# Element data
#-------------------------------------------------------------------------------

element(symbol='Ci', atomic_mass=13.003)
element(symbol='D', atomic_mass=2.014)
element(symbol='Oi', atomic_mass=18.0)
element(symbol='T', atomic_mass=3.016)
element(symbol='X', atomic_mass=195.083)
#-------------------------------------------------------------------------------
# Species data
#-------------------------------------------------------------------------------

species(name='OH',
        atoms='H:1 O:1',
        thermo=(NASA([10.00, 984.14],
                     [ 3.49686242E+00,  1.83973160E-04, -9.97634499E-07,
                       1.56942783E-09, -6.10128175E-13,  3.41673934E+03,
                       1.48093120E+00]),
                NASA([984.14, 3000.00],
                     [ 3.45221464E+00, -2.95124034E-04,  7.39418622E-07,
                      -2.89309866E-10,  3.53041498E-14,  3.45751599E+03,
                       1.85813897E+00])))

species(name='bQOOH[O]',
        atoms='C:4 H:9 O:3',
        thermo=(NASA([10.00, 338.69],
                     [ 3.60915854E+00,  3.39069566E-02,  2.22227265E-04,
                      -8.23527342E-07,  8.56246333E-10, -2.32676122E+04,
                       1.23284605E+01]),
                NASA([338.69, 3000.00],
                     [ 5.03198881E+00,  5.46235886E-02, -3.56935806E-05,
                       1.12371751E-08, -1.35390171E-12, -2.35791949E+04,
                       3.82760723E+00])))

species(name='acetone',
        atoms='C:3 H:6 O:1',
        thermo=(NASA([10.00, 414.35],
                     [ 3.73496166E+00,  3.05743218E-02, -1.26253585E-04,
                       3.66080978E-07, -3.31430437E-10, -2.49865267E+04,
                       8.24936012E+00]),
                NASA([414.35, 3000.00],
                     [ 1.70010292E-01,  3.28431468E-02, -1.80960132E-05,
                       4.82960690E-09, -5.02388538E-13, -2.44151436E+04,
                       2.56372653E+01])))

species(name='H2O',
        atoms='H:2 O:1',
        thermo=(NASA([10.00, 773.84],
                     [ 4.00473541E+00, -2.39729134E-04,  8.11862955E-07,
                       1.47891862E-09, -1.19783539E-12, -3.03533807E+04,
                      -9.96254147E-02]),
                NASA([773.84, 3000.00],
                     [ 3.52133374E+00,  1.05377009E-03,  6.40722099E-07,
                      -3.86240235E-10,  5.49243294E-14, -3.02424794E+04,
                       2.34173094E+00])))

species(name='balkoxyketone',
        atoms='C:4 H:7 O:2',
        thermo=(NASA([10.00, 269.93],
                     [ 3.81931151E+00,  1.68519318E-02,  2.42742224E-04,
                      -9.64821161E-07,  1.18509335E-09, -2.05037119E+04,
                       1.20521854E+01]),
                NASA([269.93, 3000.00],
                     [ 3.57555944E+00,  4.28868089E-02, -2.65390705E-05,
                       7.99659117E-09, -9.32983470E-13, -2.05722400E+04,
                       1.13957990E+01])))

species(name='ibutenol',
        atoms='C:4 H:8 O:1',
        thermo=(NASA([10.00, 135.97],
                     [ 3.95714996E+00,  5.72646980E-03,  4.63611760E-04,
                      -3.04137514E-06,  6.85019471E-09, -2.32671009E+04,
                       8.21931848E+00]),
                NASA([135.97, 3000.00],
                     [ 3.32467612E+00,  3.69033556E-02, -1.89960416E-05,
                       4.73417677E-09, -4.59705291E-13, -2.32615223E+04,
                       9.58133237E+00])))

species(name='trisub_epoxy',
        atoms='C:4 H:8 O:2',
        thermo=(NASA([10.00, 209.19],
                     [ 3.75295042E+00,  2.37546930E-02,  1.26610110E-04,
                      -4.78364365E-07,  5.79468168E-10, -4.00367025E+04,
                       1.12739684E+01]),
                NASA([209.19, 3000.00],
                     [ 2.64185254E+00,  4.50006531E-02, -2.57361066E-05,
                       7.15266054E-09, -7.72980731E-13, -3.99902169E+04,
                       1.48960343E+01])))

species(name='bQOOHg',
        atoms='C:4 H:9 O:3',
        thermo=(NASA([10.00, 441.09],
                     [ 3.56595280E+00,  3.36073467E-02,  2.03462772E-04,
                      -5.98977617E-07,  4.83271168E-10, -2.23432498E+04,
                       1.33537891E+01]),
                NASA([441.09, 3000.00],
                     [ 6.09031192E+00,  5.80517622E-02, -4.06392697E-05,
                       1.32574026E-08, -1.62501077E-12, -2.30264353E+04,
                      -1.97849715E+00])))

species(name='CH2O',
        atoms='C:1 H:2 O:1',
        thermo=(NASA([10.00, 601.31],
                     [ 4.03190845E+00, -1.93233367E-03,  8.89743345E-06,
                       2.98105926E-09, -7.90813886E-12, -1.42276270E+04,
                       3.47574660E+00]),
                NASA([601.31, 3000.00],
                     [ 1.40134195E+00,  9.48858016E-03, -4.43088317E-06,
                       9.48452194E-10, -7.43790219E-14, -1.38013869E+04,
                       1.57423780E+01])))

species(name='galkene',
        atoms='C:4 H:8 O:1',
        thermo=(NASA([10.00, 383.47],
                     [ 3.84035604E+00,  1.20378740E-02,  1.87486319E-04,
                      -5.44759148E-07,  4.80711015E-10, -1.92517515E+04,
                       1.02570291E+01]),
                NASA([383.47, 3000.00],
                     [ 4.00413385E+00,  3.79025144E-02, -2.15435710E-05,
                       6.15213311E-09, -6.97446345E-13, -1.94670408E+04,
                       6.98052628E+00])))

species(name='O2',
        atoms='O:2',
        thermo=(NASA([10.00, 605.96],
                     [ 3.50743498E+00, -4.43860349E-04,  1.45938058E-06,
                       1.61509333E-09, -2.32050052E-12, -9.24756224E+02,
                       4.72183634E+00]),
                NASA([605.96, 3000.00],
                     [ 2.87462882E+00,  2.17840991E-03, -1.18262921E-06,
                       2.86910493E-10, -2.53297146E-14, -8.19517838E+02,
                       7.69331810E+00])))

species(name='bR',
        atoms='C:4 H:9 O:1',
        thermo=(NASA([10.00, 483.43],
                     [ 3.38164846E+00,  5.97142637E-02, -1.58320095E-04,
                       3.04908893E-07, -2.13091806E-10, -1.32075480E+04,
                       1.09226843E+01]),
                NASA([483.43, 3000.00],
                     [ 2.33428824E+00,  4.22094427E-02, -2.28029290E-05,
                       6.04614564E-09, -6.30240159E-13, -1.28004660E+04,
                       1.83772893E+01])))

species(name='bQOOHa',
        atoms='C:4 H:9 O:3',
        thermo=(NASA([10.00, 390.53],
                     [ 3.54969236E+00,  3.76592474E-02,  1.76622653E-04,
                      -5.98063750E-07,  5.45069236E-10, -2.59575453E+04,
                       1.31518761E+01]),
                NASA([390.53, 3000.00],
                     [ 5.33564209E+00,  5.64935715E-02, -3.83214298E-05,
                       1.22990604E-08, -1.49549987E-12, -2.63801553E+04,
                       2.59015836E+00])))

species(name='bRO2',
        atoms='C:4 H:9 O:3',
        thermo=(NASA([10.00, 461.39],
                     [ 3.53964713E+00,  3.88723795E-02,  9.57420148E-05,
                      -2.80380499E-07,  2.09647462E-10, -3.31373685E+04,
                       1.18803618E+01]),
                NASA([461.39, 3000.00],
                     [ 3.47201723E+00,  6.00510247E-02, -4.00567321E-05,
                       1.25663813E-08, -1.49496682E-12, -3.33503153E+04,
                       9.77903975E+00])))

species(name='disub_epoxy',
        atoms='C:4 H:8 O:2',
        thermo=(NASA([10.00, 549.41],
                     [ 3.89863211E+00,  5.97532637E-03,  1.66685676E-04,
                      -3.10743768E-07,  1.78330192E-10, -3.74293324E+04,
                       1.13847308E+01]),
                NASA([549.41, 3000.00],
                     [-6.40277648E-01,  6.05960003E-02, -4.13427220E-05,
                       1.31555461E-08, -1.57685017E-12, -3.72562155E+04,
                       2.76005436E+01])))

species(name='HO2',
        atoms='H:1 O:2',
        thermo=(NASA([10.00, 891.11],
                     [ 4.02887004E+00, -1.75769289E-03,  1.08726004E-05,
                      -1.13812972E-08,  3.90113097E-12,  4.95165001E+02,
                       4.69302008E+00]),
                NASA([891.11, 3000.00],
                     [ 3.06571044E+00,  4.28505005E-03, -2.19325920E-06,
                       5.58882699E-10, -5.61246669E-14,  5.98557610E+02,
                       8.84564156E+00])))

#-------------------------------------------------------------------------------
# Reaction data
#-------------------------------------------------------------------------------

# Reaction 1
chebyshev_reaction('bQOOHg (+ M) <=> bRO2 (+ M)',
                   Tmin=180.0, Tmax=1500.0,
                   Pmin=(0.01, 'atm'), Pmax=(98.692, 'atm'),
                   coeffs=[[ 2.44000e+00,  1.04200e+00, -1.58400e-01, -1.15300e-02,  5.62500e-03,  1.27600e-03, -3.73800e-04, -1.12500e-04],
                           [ 2.24900e+00,  1.53700e+00, -1.52700e-01, -3.67600e-02,  4.51600e-03,  3.49200e-03, -8.76900e-05, -2.88800e-04],
                           [-1.50500e-01,  6.22000e-01,  5.56200e-02, -2.94500e-02, -9.16600e-03,  2.86500e-03,  1.41600e-03, -2.10300e-04],
                           [-5.37300e-01,  1.48800e-01,  7.51200e-02, -8.42800e-04, -1.01100e-02, -1.19900e-03,  1.67100e-03,  3.13000e-04],
                           [-3.36000e-01,  5.86600e-02,  1.45700e-02,  9.74200e-03, -1.48600e-03, -2.89700e-03,  2.34300e-04,  5.77100e-04],
                           [-1.31900e-01,  4.20500e-02, -8.67900e-03,  4.30300e-03,  2.14400e-03, -1.09800e-03, -6.77300e-04,  2.25500e-04],
                           [-4.38200e-02,  1.15600e-02, -1.40800e-03,  2.02600e-04,  5.14500e-04,  3.06100e-04, -3.85300e-04, -1.04600e-04],
                           [-2.30600e-02, -4.28500e-03,  3.59500e-03,  9.98000e-05, -5.15000e-04,  1.97000e-04,  3.16700e-06, -9.44700e-05],
                           [-1.63800e-02, -2.42200e-03,  1.47200e-03,  5.06700e-04, -8.96100e-05, -1.13600e-04,  2.41300e-05, -8.72100e-06],
                           [-7.81000e-03,  4.79400e-04, -7.66500e-04,  3.83100e-04,  2.22700e-04, -7.84200e-05, -2.86800e-05, -2.02900e-06]])

# Reaction 2
chebyshev_reaction('bQOOHa (+ M) <=> bRO2 (+ M)',
                   Tmin=180.0, Tmax=1500.0,
                   Pmin=(0.01, 'atm'), Pmax=(98.692, 'atm'),
                   coeffs=[[ 3.56600e+00,  9.61700e-01, -1.18100e-01, -1.40700e-02,  1.92300e-03,  5.16400e-04, -7.42700e-05,  2.01600e-05],
                           [ 2.52100e+00,  1.35200e+00, -8.25200e-02, -3.21100e-02, -2.82300e-03,  1.48100e-03,  2.49500e-04,  6.95200e-06],
                           [-2.33600e-01,  4.58600e-01,  9.12400e-02, -1.35300e-02, -1.13700e-02, -6.94000e-05,  8.37500e-04,  1.09600e-04],
                           [-5.21400e-01,  8.62800e-02,  7.37400e-02,  1.12800e-02, -5.40700e-03, -2.85100e-03,  1.41400e-04,  3.23800e-04],
                           [-3.00700e-01,  6.52600e-02,  4.96900e-03,  1.19000e-02,  3.71900e-03, -1.99800e-03, -8.91000e-04,  1.10400e-04],
                           [-1.48400e-01,  5.42200e-02, -1.06900e-02,  2.20300e-03,  3.93400e-03,  5.32100e-04, -6.47800e-04, -2.47100e-04],
                           [-7.46700e-02,  1.56800e-02, -7.23300e-04, -1.90700e-03,  5.95600e-04,  1.13300e-03,  8.46800e-05, -2.12500e-04],
                           [-3.49600e-02, -1.79500e-03,  3.25400e-03, -1.54700e-03, -6.18800e-04,  4.26300e-04,  2.69000e-04, -9.80200e-07],
                           [-1.55300e-02, -1.10800e-03,  1.31900e-03, -3.40300e-04, -4.34600e-04, -6.32500e-05,  1.21400e-04,  6.71000e-05],
                           [-7.70600e-03,  8.11100e-04, -3.08500e-04,  3.80100e-04, -1.87700e-04, -1.44200e-04,  1.36700e-05,  3.55200e-05]])

# Reaction 3
chebyshev_reaction('bQOOH[O] (+ M) <=> bRO2 (+ M)',
                   Tmin=180.0, Tmax=1500.0,
                   Pmin=(0.01, 'atm'), Pmax=(98.692, 'atm'),
                   coeffs=[[ 8.52600e+00,  1.11700e+00, -2.09200e-01,  4.84600e-03,  6.90200e-03, -2.06000e-03, -5.61000e-04,  3.73800e-04],
                           [-3.05100e-01,  1.02400e+00,  3.35200e-02, -5.38300e-02, -5.49900e-03,  4.84600e-03, -1.56600e-04, -5.67100e-04],
                           [-8.21200e-01,  3.48100e-01,  1.05300e-01, -5.07400e-03, -1.51600e-02, -8.61100e-04,  1.81900e-03,  7.68000e-05],
                           [-4.54000e-01,  1.42900e-01,  4.14100e-02,  1.62300e-02, -3.24500e-03, -3.80700e-03, -2.14000e-05,  5.76600e-04],
                           [-2.51900e-01,  6.76700e-02,  5.55800e-03,  9.50100e-03,  3.86600e-03, -1.34400e-03, -1.07400e-03,  6.28300e-05],
                           [-1.37700e-01,  3.18400e-02, -2.68100e-03,  1.19700e-03,  3.42300e-03,  7.48900e-04, -5.74100e-04, -2.81800e-04],
                           [-7.14900e-02,  1.29900e-02, -1.24700e-03, -1.71500e-03,  9.45400e-04,  1.00500e-03,  8.20200e-05, -1.99800e-04],
                           [-3.63200e-02,  4.93000e-03,  3.55200e-04, -1.38700e-03, -4.01200e-04,  4.42900e-04,  2.62200e-04, -1.51500e-05],
                           [-1.77000e-02,  9.22900e-04,  9.55000e-04, -3.87200e-04, -6.07500e-04, -6.54000e-06,  1.59700e-04,  6.13100e-05],
                           [-8.62900e-03,  5.11600e-05,  5.53400e-04,  1.27000e-04, -2.85800e-04, -1.46700e-04,  2.23500e-05,  5.04100e-05]])

# Reaction 4
chebyshev_reaction('O2 + bR (+ M) <=> bRO2 (+ M)',
                   Tmin=180.0, Tmax=1500.0,
                   Pmin=(0.01, 'atm'), Pmax=(98.692, 'atm'),
                   coeffs=[[ 1.42500e+01,  6.60500e-01, -7.90400e-02,  5.43300e-03, -1.00100e-03,  6.52900e-05, -1.63400e-05,  1.17200e-05],
                           [-1.46400e+00,  8.67100e-01, -2.84400e-02, -1.30400e-02,  8.61600e-04,  7.04200e-05, -3.31700e-05, -7.16500e-06],
                           [-7.33100e-01,  3.21100e-01,  4.16000e-02, -6.26400e-03, -1.33400e-03, -3.99600e-05,  7.79800e-05, -1.04100e-05],
                           [-3.39900e-01,  6.15700e-02,  2.82900e-02,  3.05100e-03, -4.33900e-04, -3.37900e-04,  4.21200e-06,  1.40500e-05],
                           [-1.55800e-01,  5.95100e-03,  6.28400e-03,  2.73600e-03,  5.31700e-04, -4.45900e-05, -5.59800e-05, -3.19100e-06],
                           [-8.63900e-02,  8.16100e-03,  1.27800e-04,  4.81400e-04,  1.87900e-04,  1.30900e-04, -2.13300e-06, -8.91900e-06],
                           [-5.36300e-02,  6.60500e-03,  1.35400e-03,  6.14200e-05, -1.58700e-04,  3.45900e-05,  2.01200e-05,  2.46200e-06],
                           [-3.00000e-02, -3.73200e-04,  1.78300e-03,  3.46600e-04, -6.33800e-05, -4.02200e-05, -2.30400e-07,  3.70100e-06],
                           [-1.28000e-02, -4.52400e-03,  7.86000e-04,  3.20100e-04,  7.30100e-05, -1.64900e-05, -8.80300e-06, -1.03400e-06],
                           [-2.82100e-03, -4.51500e-03, -1.03400e-04,  1.09000e-04,  6.82700e-05,  1.05700e-05, -1.13100e-06, -1.37700e-06]])
#  bRO2(+M) <=> bQOOHg(+M)                             1.000e+00 0.000     0.000
#      TCHEB/ 180.000   1500.000 /
#      PCHEB/ 0.010     98.692   /
#      CHEB/ 10 8/
#      CHEB/ -1.119e+01   1.042e+00    -1.584e-01   -1.153e-02   5.625e-03   /
#      CHEB/ 1.276e-03    -3.738e-04   -1.125e-04   1.410e+01    1.537e+00   /
#      CHEB/ -1.527e-01   -3.676e-02   4.516e-03    3.492e-03    -8.769e-05  /
#      CHEB/ -2.888e-04   -4.732e-03   6.220e-01    5.562e-02    -2.945e-02  /
#      CHEB/ -9.166e-03   2.865e-03    1.416e-03    -2.103e-04   -5.002e-01  /
#      CHEB/ 1.488e-01    7.512e-02    -8.428e-04   -1.011e-02   -1.199e-03  /
#      CHEB/ 1.671e-03    3.130e-04    -3.302e-01   5.866e-02    1.457e-02   /
#      CHEB/ 9.742e-03    -1.486e-03   -2.897e-03   2.343e-04    5.771e-04   /
#      CHEB/ -1.320e-01   4.205e-02    -8.679e-03   4.303e-03    2.144e-03   /
#      CHEB/ -1.098e-03   -6.773e-04   2.255e-04    -4.440e-02   1.156e-02   /
#      CHEB/ -1.408e-03   2.026e-04    5.145e-04    3.061e-04    -3.853e-04  /
#      CHEB/ -1.046e-04   -2.351e-02   -4.285e-03   3.595e-03    9.980e-05   /
#      CHEB/ -5.150e-04   1.970e-04    3.167e-06    -9.447e-05   -1.670e-02  /
#      CHEB/ -2.422e-03   1.472e-03    5.067e-04    -8.961e-05   -1.136e-04  /
#      CHEB/ 2.413e-05    -8.721e-06   -7.997e-03   4.794e-04    -7.665e-04  /
#      CHEB/ 3.831e-04    2.227e-04    -7.842e-05   -2.868e-05   -2.029e-06  /

# Reaction 5
chebyshev_reaction('bQOOHa (+ M) <=> bQOOHg (+ M)',
                   Tmin=180.0, Tmax=1500.0,
                   Pmin=(0.01, 'atm'), Pmax=(98.692, 'atm'),
                   coeffs=[[-8.28800e+00,  6.54200e-01, -4.25800e-01, -2.46500e-02,  1.46800e-02,  1.17600e-03, -1.11300e-03,  3.72500e-06],
                           [ 8.70000e+00,  2.36100e+00,  2.09000e-02, -8.73400e-02, -1.67900e-02,  6.62300e-03,  1.97000e-03, -5.12300e-04],
                           [-2.74900e-01,  5.53000e-01,  1.69800e-01,  6.48800e-03, -1.91000e-02, -4.65900e-03,  1.65500e-03,  7.46700e-04],
                           [-6.25800e-01,  1.39300e-01,  4.72400e-02,  2.07100e-02, -1.10200e-03, -3.59200e-03, -3.77500e-04,  2.32200e-04],
                           [-2.14500e-01,  4.26600e-02, -7.41400e-04,  7.22700e-03,  2.23200e-03, -7.46300e-04, -2.65200e-04,  8.77200e-05],
                           [ 9.47200e-03, -1.33900e-02,  3.23700e-03,  1.26200e-03,  5.10400e-04, -9.81100e-05, -2.44900e-04,  1.42300e-04],
                           [ 3.59500e-02, -2.01000e-02,  4.94400e-03,  1.46100e-03, -3.00100e-04, -2.25900e-05, -1.99100e-04, -2.73600e-05],
                           [ 1.31300e-02, -1.04500e-02,  1.87600e-03,  1.52600e-03,  4.09400e-05, -6.24600e-05, -7.42400e-05, -6.86800e-05],
                           [ 1.10800e-03, -7.66300e-03,  8.59900e-04,  3.19100e-04,  3.68900e-04, -5.17000e-06, -4.52700e-05, -2.55600e-05],
                           [ 1.71800e-03, -7.95400e-03,  9.68100e-04, -2.18400e-04,  1.88100e-04,  2.71400e-05, -1.79200e-05, -8.03900e-06]])

# Reaction 6
chebyshev_reaction('bQOOH[O] (+ M) <=> bQOOHg (+ M)',
                   Tmin=180.0, Tmax=1500.0,
                   Pmin=(0.01, 'atm'), Pmax=(98.692, 'atm'),
                   coeffs=[[-3.38200e+00,  6.15000e-01, -4.13000e-01, -2.69200e-02,  1.53600e-02,  1.30300e-03, -1.56700e-03,  5.48500e-05],
                           [ 5.13300e+00,  2.24200e+00,  3.41700e-02, -7.57100e-02, -1.94300e-02,  5.35500e-03,  2.66300e-03, -5.36600e-04],
                           [-2.96100e-01,  5.97500e-01,  1.40100e-01,  3.04400e-03, -1.23000e-02, -3.73900e-03,  5.21500e-04,  6.23700e-04],
                           [-6.39700e-01,  1.36600e-01,  5.03600e-02,  1.62600e-02, -1.89000e-03, -1.77700e-03,  6.99200e-05, -1.06100e-04],
                           [-2.62800e-01,  6.18400e-02, -7.31400e-04,  6.72300e-03,  7.13800e-04, -9.53800e-04,  3.94100e-04,  2.58100e-04],
                           [-2.17200e-02,  1.53100e-02, -1.47200e-03,  8.95700e-04,  5.30700e-04, -5.28000e-04, -2.65400e-04,  3.23100e-04],
                           [ 2.76400e-02, -1.08900e-02,  3.37400e-03,  1.10800e-03, -2.38600e-04, -8.71200e-05, -3.31700e-04, -2.09000e-05],
                           [ 1.11200e-02, -8.17500e-03,  1.73100e-03,  1.38700e-03, -1.21700e-04,  1.11300e-06, -1.02200e-04, -1.10800e-04],
                           [-1.03500e-03, -4.96600e-03,  6.35900e-04,  7.07700e-04,  1.06600e-04, -4.68900e-05, -8.46700e-08, -3.01700e-05],
                           [-1.36200e-03, -4.81500e-03,  5.95900e-04, -6.97100e-05,  1.67000e-04,  1.18100e-06, -1.77300e-05, -2.00700e-06]])

# Reaction 7
chebyshev_reaction('O2 + bR (+ M) <=> bQOOHg (+ M)',
                   Tmin=180.0, Tmax=1500.0,
                   Pmin=(0.01, 'atm'), Pmax=(98.692, 'atm'),
                   coeffs=[[ 6.94300e+00,  1.25600e-01, -3.71000e-01, -8.85800e-03,  1.84300e-02, -2.42700e-04, -2.41300e-03,  4.00600e-04],
                           [ 6.42900e-01,  1.49300e+00,  1.05300e-01, -6.73900e-02, -1.96300e-02,  7.38100e-03,  3.35700e-03, -1.23000e-03],
                           [-1.18900e-01,  2.95900e-01,  1.17200e-01,  2.51200e-03, -1.40300e-02, -3.65800e-03,  2.11500e-03,  1.04500e-03],
                           [-8.79000e-02, -4.66300e-02,  3.70100e-02,  1.31600e-02, -2.63200e-03, -3.39100e-03, -3.32100e-04,  7.46700e-04],
                           [ 1.69400e-02, -4.22100e-02,  3.20900e-03,  6.31500e-03,  4.17100e-04, -1.47500e-03, -7.35700e-04,  1.46400e-04],
                           [ 3.77100e-02, -3.20300e-03,  1.84600e-04,  3.01200e-03,  7.97400e-04, -5.83400e-04, -5.72700e-04, -9.99800e-05],
                           [ 1.60400e-02,  3.45500e-03,  7.80200e-04,  2.04100e-03,  9.70600e-04, -1.02600e-04, -3.31800e-04, -1.54000e-04],
                           [-2.43300e-04,  4.44500e-04, -5.12800e-04,  6.59000e-04,  8.32500e-04,  2.09900e-04, -1.28600e-04, -1.27600e-04],
                           [-3.09400e-03, -1.98900e-03, -9.94400e-04, -6.09500e-05,  3.42800e-04,  2.03800e-04,  1.58000e-05, -6.04200e-05],
                           [-1.56400e-03, -4.23100e-04, -7.91900e-04, -3.70300e-04,  9.02200e-05,  1.41300e-04,  3.43700e-05, -2.05600e-05]])
#  bRO2(+M) <=> bQOOHa(+M)                             1.000e+00 0.000     0.000
#      TCHEB/ 180.000   1500.000 /
#      PCHEB/ 0.010     98.692   /
#      CHEB/ 10 8/
#      CHEB/ -5.287e+00   9.617e-01    -1.181e-01   -1.407e-02   1.923e-03   /
#      CHEB/ 5.164e-04    -7.427e-05   2.016e-05    1.039e+01    1.352e+00   /
#      CHEB/ -8.252e-02   -3.211e-02   -2.823e-03   1.481e-03    2.495e-04   /
#      CHEB/ 6.952e-06    -1.786e-01   4.586e-01    9.124e-02    -1.353e-02  /
#      CHEB/ -1.137e-02   -6.940e-05   8.375e-04    1.096e-04    -5.201e-01  /
#      CHEB/ 8.628e-02    7.374e-02    1.128e-02    -5.407e-03   -2.851e-03  /
#      CHEB/ 1.414e-04    3.238e-04    -3.055e-01   6.526e-02    4.969e-03   /
#      CHEB/ 1.190e-02    3.719e-03    -1.998e-03   -8.910e-04   1.104e-04   /
#      CHEB/ -1.512e-01   5.422e-02    -1.069e-02   2.203e-03    3.934e-03   /
#      CHEB/ 5.321e-04    -6.478e-04   -2.471e-04   -7.602e-02   1.568e-02   /
#      CHEB/ -7.233e-04   -1.907e-03   5.956e-04    1.133e-03    8.468e-05   /
#      CHEB/ -2.125e-04   -3.568e-02   -1.795e-03   3.254e-03    -1.547e-03  /
#      CHEB/ -6.188e-04   4.263e-04    2.690e-04    -9.802e-07   -1.588e-02  /
#      CHEB/ -1.108e-03   1.319e-03    -3.403e-04   -4.346e-04   -6.325e-05  /
#      CHEB/ 1.214e-04    6.710e-05    -7.825e-03   8.111e-04    -3.085e-04  /
#      CHEB/ 3.801e-04    -1.877e-04   -1.442e-04   1.367e-05    3.552e-05   /
#  bQOOHg(+M) <=> bQOOHa(+M)                           1.000e+00 0.000     0.000
#      TCHEB/ 180.000   1500.000 /
#      PCHEB/ 0.010     98.692   /
#      CHEB/ 10 8/
#      CHEB/ -3.510e+00   6.542e-01    -4.258e-01   -2.465e-02   1.468e-02   /
#      CHEB/ 1.176e-03    -1.113e-03   3.725e-06    4.715e+00    2.361e+00   /
#      CHEB/ 2.090e-02    -8.734e-02   -1.679e-02   6.623e-03    1.970e-03   /
#      CHEB/ -5.123e-04   -3.657e-01   5.530e-01    1.698e-01    6.488e-03   /
#      CHEB/ -1.910e-02   -4.659e-03   1.655e-03    7.467e-04    -6.616e-01  /
#      CHEB/ 1.393e-01    4.724e-02    2.071e-02    -1.102e-03   -3.592e-03  /
#      CHEB/ -3.775e-04   2.322e-04    -2.251e-01   4.266e-02    -7.414e-04  /
#      CHEB/ 7.227e-03    2.232e-03    -7.463e-04   -2.652e-04   8.772e-05   /
#      CHEB/ 6.846e-03    -1.339e-02   3.237e-03    1.262e-03    5.104e-04   /
#      CHEB/ -9.811e-05   -2.449e-04   1.423e-04    3.518e-02    -2.010e-02  /
#      CHEB/ 4.944e-03    1.461e-03    -3.001e-04   -2.259e-05   -1.991e-04  /
#      CHEB/ -2.736e-05   1.286e-02    -1.045e-02   1.876e-03    1.526e-03   /
#      CHEB/ 4.094e-05    -6.246e-05   -7.424e-05   -6.868e-05   1.084e-03   /
#      CHEB/ -7.663e-03   8.599e-04    3.191e-04    3.689e-04    -5.170e-06  /
#      CHEB/ -4.527e-05   -2.556e-05   1.785e-03    -7.954e-03   9.681e-04   /
#      CHEB/ -2.184e-04   1.881e-04    2.714e-05    -1.792e-05   -8.039e-06  /

# Reaction 8
chebyshev_reaction('bQOOH[O] (+ M) <=> bQOOHa (+ M)',
                   Tmin=180.0, Tmax=1500.0,
                   Pmin=(0.01, 'atm'), Pmax=(98.692, 'atm'),
                   coeffs=[[ 1.37700e+00,  5.71700e-01, -4.29800e-01, -1.34000e-02,  1.52400e-02, -1.37300e-03, -1.62900e-03,  4.47500e-04],
                           [ 2.48700e+00,  1.98100e+00,  1.54100e-01, -9.70800e-02, -2.46700e-02,  7.26900e-03,  2.37000e-03, -8.42900e-04],
                           [-6.64000e-01,  4.87500e-01,  1.88400e-01,  2.20600e-02, -2.17900e-02, -6.99200e-03,  1.71000e-03,  9.82900e-04],
                           [-6.71500e-01,  1.69600e-01,  2.93900e-02,  3.31700e-02,  6.49100e-03, -5.37600e-03, -2.23600e-03,  3.65600e-04],
                           [-3.16900e-01,  7.36200e-02, -9.04000e-03,  6.21400e-03,  8.94700e-03,  9.83300e-04, -1.41500e-03, -5.64800e-04],
                           [-8.93700e-02,  2.74100e-02, -2.87700e-03, -4.10900e-03,  2.07400e-03,  2.11300e-03,  1.88700e-04, -3.62600e-04],
                           [-1.18000e-02,  1.02900e-02,  3.74400e-04, -2.21500e-03, -1.12000e-03,  7.13300e-04,  5.09900e-04,  1.25000e-05],
                           [-8.92500e-04,  4.41700e-03,  4.72300e-05,  9.13800e-05, -8.54300e-04, -1.42400e-04,  1.97900e-04,  1.03300e-04],
                           [-5.71600e-03,  1.29700e-03, -2.88900e-04,  5.61800e-04, -9.80800e-05, -2.34900e-04, -1.44900e-05,  6.02500e-05],
                           [-6.81700e-03,  9.61900e-05, -2.08400e-04,  1.45800e-04,  1.73900e-04, -7.17800e-05, -5.59900e-05,  1.10100e-05]])

# Reaction 9
chebyshev_reaction('O2 + bR (+ M) <=> bQOOHa (+ M)',
                   Tmin=180.0, Tmax=1500.0,
                   Pmin=(0.01, 'atm'), Pmax=(98.692, 'atm'),
                   coeffs=[[ 9.77800e+00,  3.43400e-01, -2.97300e-01, -4.62800e-02,  4.54000e-03,  6.57800e-03,  2.96400e-04, -1.00800e-03],
                           [-6.56900e-01,  1.31400e+00,  1.31600e-01, -5.97700e-03, -1.89500e-02, -7.27500e-03,  1.39500e-03,  1.66200e-03],
                           [-6.19700e-01,  3.40300e-01,  9.51700e-02,  1.54500e-02,  6.65300e-04, -3.15700e-03, -1.87000e-03, -1.30600e-04],
                           [-3.17200e-01,  9.23600e-04,  3.17500e-02,  1.16300e-02,  3.41900e-03,  2.92700e-04, -6.18300e-04, -4.71800e-04],
                           [-8.08500e-02, -3.48300e-02,  1.60400e-03,  3.64000e-03,  1.72400e-03,  7.38500e-04,  1.16300e-04, -1.20400e-04],
                           [ 1.35200e-02, -1.23500e-02, -2.01000e-03,  4.91600e-04,  3.47400e-04,  3.40100e-04,  1.40700e-04,  2.65800e-05],
                           [ 1.81400e-02, -3.69700e-03,  1.21900e-04,  2.77000e-04,  1.16700e-07,  9.35400e-05,  6.80700e-05,  2.41500e-05],
                           [ 6.87800e-03, -5.55100e-03,  2.12900e-05,  4.08400e-04,  1.22400e-04,  7.94700e-06,  1.66600e-05,  1.44000e-05],
                           [-5.58100e-04, -4.66500e-03, -6.29000e-04,  1.63300e-05,  4.87500e-05,  1.38300e-05,  2.17800e-05,  1.00100e-05],
                           [ 4.17300e-04, -3.34500e-03, -1.03900e-03, -1.86300e-05,  6.12400e-05, -1.65400e-05, -1.32900e-05,  4.65100e-06]])
#  bRO2(+M) <=> bQOOH[O](+M)                           1.000e+00 0.000     0.000
#      TCHEB/ 180.000   1500.000 /
#      PCHEB/ 0.010     98.692   /
#      CHEB/ 10 8/
#      CHEB/ -4.371e+00   1.117e+00    -2.092e-01   4.846e-03    6.902e-03   /
#      CHEB/ -2.060e-03   -5.610e-04   3.738e-04    1.029e+01    1.024e+00   /
#      CHEB/ 3.352e-02    -5.383e-02   -5.499e-03   4.846e-03    -1.566e-04  /
#      CHEB/ -5.671e-04   -8.271e-01   3.481e-01    1.053e-01    -5.074e-03  /
#      CHEB/ -1.516e-02   -8.611e-04   1.819e-03    7.680e-05    -4.750e-01  /
#      CHEB/ 1.429e-01    4.141e-02    1.623e-02    -3.245e-03   -3.807e-03  /
#      CHEB/ -2.140e-05   5.766e-04    -2.627e-01   6.767e-02    5.558e-03   /
#      CHEB/ 9.501e-03    3.866e-03    -1.344e-03   -1.074e-03   6.283e-05   /
#      CHEB/ -1.416e-01   3.184e-02    -2.681e-03   1.197e-03    3.423e-03   /
#      CHEB/ 7.489e-04    -5.741e-04   -2.818e-04   -7.301e-02   1.299e-02   /
#      CHEB/ -1.247e-03   -1.715e-03   9.454e-04    1.005e-03    8.202e-05   /
#      CHEB/ -1.998e-04   -3.695e-02   4.930e-03    3.552e-04    -1.387e-03  /
#      CHEB/ -4.012e-04   4.429e-04    2.622e-04    -1.515e-05   -1.788e-02  /
#      CHEB/ 9.229e-04    9.550e-04    -3.872e-04   -6.075e-04   -6.540e-06  /
#      CHEB/ 1.597e-04    6.131e-05    -8.623e-03   5.116e-05    5.534e-04   /
#      CHEB/ 1.270e-04    -2.858e-04   -1.467e-04   2.235e-05    5.041e-05   /
#  bQOOHg(+M) <=> bQOOH[O](+M)                         1.000e+00 0.000     0.000
#      TCHEB/ 180.000   1500.000 /
#      PCHEB/ 0.010     98.692   /
#      CHEB/ 10 8/
#      CHEB/ -2.647e+00   6.150e-01    -4.130e-01   -2.692e-02   1.536e-02   /
#      CHEB/ 1.303e-03    -1.567e-03   5.485e-05    3.880e+00    2.242e+00   /
#      CHEB/ 3.417e-02    -7.571e-02   -1.943e-02   5.355e-03    2.663e-03   /
#      CHEB/ -5.366e-04   -4.477e-01   5.975e-01    1.401e-01    3.044e-03   /
#      CHEB/ -1.230e-02   -3.739e-03   5.215e-04    6.237e-04    -6.980e-01  /