units(length='cm', time='s', quantity='mol', act_energy='kcal/mol')

ideal_gas(name='gas',
          elements="H D T C Ci O Oi N Ne Ar He Si S F Cl Br I X",
          species="""propene3ol       OH               disub_c4ether
                     H2O              disub_epoxy      gQOOHa
                     propene1ol       gQOOHb           ipropylOOH
                     galdoxy          galkene          CH2O
                     O2               gRO2             gQOOHg
                     gR               galdol           monosub_c4ether
                     HO2              gQOOH[O]""",
          reactions='all',
          initial_state=state(temperature=300.0, pressure=OneAtm))

#-------------------------------------------------------------------------------
# Element data
#-------------------------------------------------------------------------------

element(symbol='Ci', atomic_mass=13.003)
element(symbol='D', atomic_mass=2.014)
element(symbol='Oi', atomic_mass=18.0)
element(symbol='T', atomic_mass=3.016)
element(symbol='X', atomic_mass=195.083)
#-------------------------------------------------------------------------------
# Species data
#-------------------------------------------------------------------------------

species(name='propene3ol',
        atoms='C:3 H:6 O:1',
        thermo=(NASA([10.00, 444.81],
                     [ 3.92769709E+00,  4.89977303E-03,  1.13094874E-04,
                      -2.59008187E-07,  1.86205760E-10, -1.67603053E+04,
                       9.90805416E+00]),
                NASA([444.81, 3000.00],
                     [ 2.61720343E+00,  3.01777872E-02, -1.76511625E-05,
                       5.14864061E-09, -5.91153761E-13, -1.67772058E+04,
                       1.36683107E+01])))

species(name='OH',
        atoms='H:1 O:1',
        thermo=(NASA([10.00, 984.14],
                     [ 3.49686242E+00,  1.83973160E-04, -9.97634499E-07,
                       1.56942783E-09, -6.10128175E-13,  3.41673934E+03,
                       1.48093120E+00]),
                NASA([984.14, 3000.00],
                     [ 3.45221464E+00, -2.95124034E-04,  7.39418622E-07,
                      -2.89309866E-10,  3.53041498E-14,  3.45751599E+03,
                       1.85813897E+00])))

species(name='disub_c4ether',
        atoms='C:4 H:8 O:2',
        thermo=(NASA([10.00, 413.50],
                     [ 3.78241323E+00,  1.89501763E-02,  8.65302396E-05,
                      -1.80580575E-07,  1.13656264E-10, -4.04453011E+04,
                       1.09982450E+01]),
                NASA([413.50, 3000.00],
                     [ 4.29420885E-01,  5.13851903E-02, -3.11292293E-05,
                       9.11498284E-09, -1.03192718E-12, -4.01680067E+04,
                       2.42134976E+01])))

species(name='H2O',
        atoms='H:2 O:1',
        thermo=(NASA([10.00, 773.84],
                     [ 4.00473541E+00, -2.39729134E-04,  8.11862955E-07,
                       1.47891862E-09, -1.19783539E-12, -3.03533807E+04,
                      -9.96254147E-02]),
                NASA([773.84, 3000.00],
                     [ 3.52133374E+00,  1.05377009E-03,  6.40722099E-07,
                      -3.86240235E-10,  5.49243294E-14, -3.02424794E+04,
                       2.34173094E+00])))

species(name='disub_epoxy',
        atoms='C:4 H:8 O:2',
        thermo=(NASA([10.00, 549.41],
                     [ 3.89863211E+00,  5.97532637E-03,  1.66685676E-04,
                      -3.10743768E-07,  1.78330192E-10, -3.79467837E+04,
                       1.13847308E+01]),
                NASA([549.41, 3000.00],
                     [-6.40277648E-01,  6.05960003E-02, -4.13427220E-05,
                       1.31555461E-08, -1.57685017E-12, -3.77736668E+04,
                       2.76005436E+01])))

species(name='gQOOHa',
        atoms='C:4 H:9 O:3',
        thermo=(NASA([10.00, 160.74],
                     [ 3.80808147E+00,  2.31043884E-02,  5.26945984E-04,
                      -3.11500696E-06,  6.03881958E-09, -2.48113248E+04,
                       1.17645316E+01]),
                NASA([160.74, 3000.00],
                     [ 2.90630300E+00,  6.50241173E-02, -4.60073244E-05,
                       1.51330930E-08, -1.87074267E-12, -2.48075003E+04,
                       1.36838819E+01])))

species(name='propene1ol',
        atoms='C:3 H:6 O:1',
        thermo=(NASA([10.00, 459.42],
                     [ 3.91245344E+00,  5.85800161E-03,  1.15412006E-04,
                      -2.68014417E-07,  1.91800131E-10, -1.98054029E+04,
                       8.14807684E+00]),
                NASA([459.42, 3000.00],
                     [ 3.14049093E+00,  2.95550898E-02, -1.73843684E-05,
                       5.11506211E-09, -5.92966137E-13, -1.99136255E+04,
                       9.32215170E+00])))

species(name='gQOOHb',
        atoms='C:4 H:9 O:3',
        thermo=(NASA([10.00, 1018.67],
                     [ 3.99028351E+00,  4.29665712E-02,  2.28338778E-05,
                      -5.67914439E-08,  2.29383258E-11, -2.15244805E+04,
                       1.20326731E+01]),
                NASA([1018.67, 3000.00],
                     [ 1.38304153E+01,  3.88527019E-02, -2.19473905E-05,
                       5.78719895E-09, -5.85097740E-13, -2.53205653E+04,
                      -4.44147388E+01])))

species(name='ipropylOOH',
        atoms='C:3 H:7 O:2',
        thermo=(NASA([10.00, 405.01],
                     [ 3.30075623E+00,  7.58672756E-02, -3.35754269E-04,
                       8.05972164E-07, -6.68864582E-10, -1.28878212E+03,
                       1.43372849E+01]),
                NASA([405.01, 3000.00],
                     [ 2.51742509E+00,  3.72760950E-02, -2.12450220E-05,
                       5.83593926E-09, -6.22110649E-13, -8.45374516E+02,
                       2.20991392E+01])))

species(name='galdoxy',
        atoms='C:4 H:7 O:2',
        thermo=(NASA([10.00, 209.62],
                     [ 3.82641108E+00,  1.84758886E-02,  3.43073800E-04,
                      -1.82817005E-06,  2.98516720E-09, -1.62427771E+04,
                       1.17972706E+01]),
                NASA([209.62, 3000.00],
                     [ 4.22049016E+00,  4.03370149E-02, -2.36129482E-05,
                       6.72979114E-09, -7.47862493E-13, -1.63238468E+04,
                       8.97211724E+00])))

species(name='galkene',
        atoms='C:4 H:8 O:1',
        thermo=(NASA([10.00, 383.47],
                     [ 3.84035604E+00,  1.20378740E-02,  1.87486319E-04,
                      -5.44759148E-07,  4.80711015E-10, -2.23994426E+04,
                       1.02570291E+01]),
                NASA([383.47, 3000.00],
                     [ 4.00413385E+00,  3.79025144E-02, -2.15435710E-05,
                       6.15213311E-09, -6.97446345E-13, -2.26147320E+04,
                       6.98052628E+00])))

species(name='CH2O',
        atoms='C:1 H:2 O:1',
        thermo=(NASA([10.00, 601.31],
                     [ 4.03190845E+00, -1.93233367E-03,  8.89743345E-06,
                       2.98105926E-09, -7.90813886E-12, -1.42276270E+04,
                       3.47574660E+00]),
                NASA([601.31, 3000.00],
                     [ 1.40134195E+00,  9.48858016E-03, -4.43088317E-06,
                       9.48452194E-10, -7.43790219E-14, -1.38013869E+04,
                       1.57423780E+01])))

species(name='O2',
        atoms='O:2',
        thermo=(NASA([10.00, 605.96],
                     [ 3.50743498E+00, -4.43860349E-04,  1.45938058E-06,
                       1.61509333E-09, -2.32050052E-12, -9.24756224E+02,
                       4.72183634E+00]),
                NASA([605.96, 3000.00],
                     [ 2.87462882E+00,  2.17840991E-03, -1.18262921E-06,
                       2.86910493E-10, -2.53297146E-14, -8.19517838E+02,
                       7.69331810E+00])))

species(name='gRO2',
        atoms='C:4 H:9 O:3',
        thermo=(NASA([10.00, 177.33],
                     [ 3.70632176E+00,  3.49733664E-02,  4.64036392E-04,
                      -3.18637835E-06,  6.38178607E-09, -2.82888536E+04,
                       1.24459269E+01]),
                NASA([177.33, 3000.00],
                     [ 4.82062697E+00,  5.17179689E-02, -3.18386818E-05,
                       9.52247045E-09, -1.10180288E-12, -2.83942242E+04,
                       7.14082953E+00])))

species(name='gQOOHg',
        atoms='C:4 H:9 O:3',
        thermo=(NASA([10.00, 475.03],
                     [ 3.42273720E+00,  4.98344215E-02,  6.47820920E-05,
                      -2.49842966E-07,  1.98636537E-10, -2.03357392E+04,
                       1.41578583E+01]),
                NASA([475.03, 3000.00],
                     [ 5.94049074E+00,  5.53778585E-02, -3.71708255E-05,
                       1.17540477E-08, -1.40812095E-12, -2.08766935E+04,
                       7.09201218E-01])))

species(name='gR',
        atoms='C:4 H:9 O:1',
        thermo=(NASA([10.00, 638.24],
                     [ 3.37074633E+00,  5.17529751E-02, -6.54872940E-05,
                       6.88084237E-08, -3.21569794E-11, -9.96454812E+03,
                       1.14339669E+01]),
                NASA([638.24, 3000.00],
                     [ 3.99410860E+00,  4.06314915E-02, -2.23932510E-05,
                       6.08356263E-09, -6.49884708E-13, -9.89717341E+03,
                       9.85769960E+00])))

species(name='galdol',
        atoms='C:4 H:8 O:2',
        thermo=(NASA([10.00, 506.68],
                     [ 3.85380874E+00,  9.21272695E-03,  1.86712348E-04,
                      -3.96417049E-07,  2.55528268E-10, -4.69830237E+04,
                       1.24312743E+01]),
                NASA([506.68, 3000.00],
                     [ 1.49710213E+00,  5.65979142E-02, -3.87709084E-05,
                       1.23682052E-08, -1.48287964E-12, -4.71136331E+04,
                       1.85531759E+01])))

species(name='monosub_c4ether',
        atoms='C:4 H:8 O:2',
        thermo=(NASA([10.00, 380.36],
                     [ 3.47743996E+00,  6.08051311E-02, -2.78518945E-04,
                       8.23182713E-07, -7.87158031E-10, -3.36180885E+04,
                       1.06415154E+01]),
                NASA([380.36, 3000.00],
                     [-1.09346901E+00,  5.35985968E-02, -3.21081420E-05,
                       9.20818293E-09, -1.01830294E-12, -3.28705284E+04,
                       3.35312368E+01])))

species(name='HO2',
        atoms='H:1 O:2',
        thermo=(NASA([10.00, 891.11],
                     [ 4.02887004E+00, -1.75769289E-03,  1.08726004E-05,
                      -1.13812972E-08,  3.90113097E-12,  4.95165001E+02,
                       4.69302008E+00]),
                NASA([891.11, 3000.00],
                     [ 3.06571044E+00,  4.28505005E-03, -2.19325920E-06,
                       5.58882699E-10, -5.61246669E-14,  5.98557610E+02,
                       8.84564156E+00])))

species(name='gQOOH[O]',
        atoms='C:4 H:9 O:3',
        thermo=(NASA([10.00, 535.23],
                     [ 3.83107445E+00,  1.02302002E-02,  2.29377261E-04,
                      -4.59095575E-07,  2.77765018E-10, -1.91989467E+04,
                       1.41034859E+01]),
                NASA([535.23, 3000.00],
                     [-4.19283096E-01,  7.69784620E-02, -5.57279000E-05,
                       1.81378295E-08, -2.18295635E-12, -1.92450600E+04,
                       2.72711816E+01])))

#-------------------------------------------------------------------------------
# Reaction data
#-------------------------------------------------------------------------------

# Reaction 1
chebyshev_reaction('gQOOH[O] (+ M) <=> gRO2 (+ M)',
                   Tmin=180.0, Tmax=1500.0,
                   Pmin=(0.01, 'atm'), Pmax=(98.692, 'atm'),
                   coeffs=[[ 5.10700e+00,  1.60100e+00, -7.96500e-02, -1.14900e-02, -2.33200e-03,  9.73800e-04, -7.67000e-06, -9.51300e-05],
                           [-4.57700e+00,  6.59500e-01,  1.34800e-01,  2.14800e-02, -7.54200e-04, -3.13300e-03, -6.42900e-04,  2.52500e-06],
                           [-3.07500e+00, -7.47700e-02, -1.09100e-02,  1.48000e-02,  5.56500e-03,  7.51000e-04, -3.34500e-04, -2.65800e-04],
                           [-1.65600e+00, -7.05400e-02, -8.48000e-03, -1.92300e-03, -8.37700e-04, -1.45400e-04,  9.56400e-05,  7.28500e-05],
                           [-8.33300e-01, -4.98200e-02,  1.49400e-02,  7.47600e-03,  9.63500e-04, -7.02400e-04, -4.80400e-04, -6.69100e-05],
                           [-4.18400e-01, -9.21100e-02,  4.79300e-03,  1.17500e-02,  4.21900e-03,  6.20200e-04, -2.74300e-04, -1.40700e-04],
                           [-2.33600e-01, -9.07700e-02, -1.39700e-02,  5.62200e-03,  4.09200e-03,  8.76900e-04,  4.73200e-05,  2.21100e-05],
                           [-1.15200e-01, -7.82800e-02, -2.53200e-02,  9.15900e-04,  3.06000e-03,  6.35400e-04,  2.61200e-05,  3.97400e-05],
                           [-2.22800e-02, -7.21300e-02, -2.91700e-02, -5.85000e-04,  2.10100e-03,  9.10200e-04,  1.12700e-04, -2.61900e-05],
                           [-7.20100e-03, -2.01900e-02, -2.74300e-02, -6.73400e-03,  1.74600e-03,  1.22100e-03,  3.72500e-04,  1.56900e-05]])

# Reaction 2
chebyshev_reaction('gQOOHa (+ M) <=> gRO2 (+ M)',
                   Tmin=180.0, Tmax=1500.0,
                   Pmin=(0.01, 'atm'), Pmax=(98.692, 'atm'),
                   coeffs=[[ 3.97400e+00,  8.23300e-01, -4.82100e-02,  1.54800e-02, -9.20000e-04,  7.47800e-05, -5.74300e-05, -5.97400e-05],
                           [-1.97900e+00,  1.06400e+00,  4.55600e-02,  1.09200e-05,  4.44200e-03, -8.82700e-04, -9.54700e-05, -5.84300e-05],
                           [-3.02000e+00,  1.66900e-01,  1.37700e-01,  8.46300e-03, -1.43700e-03,  4.47800e-04, -2.59000e-04, -1.04800e-04],
                           [-1.80200e+00, -2.68900e-01,  6.63300e-02,  3.11500e-02, -9.37600e-04, -8.30800e-04, -6.64600e-05, -1.13500e-04],
                           [-9.04800e-01, -2.50800e-01, -2.05200e-02,  2.23800e-02,  6.07500e-03, -1.08200e-03, -5.56400e-04, -2.70600e-05],
                           [-3.93900e-01, -1.11000e-01, -3.16900e-02,  2.47300e-03,  6.00500e-03,  6.68100e-04, -7.20800e-04, -1.44300e-04],
                           [-1.93500e-01, -4.22500e-02, -6.99300e-03,  5.57400e-04,  9.29500e-04,  8.33500e-04, -1.54400e-04, -1.80600e-04],
                           [-7.31900e-02, -4.90600e-02,  2.18200e-04,  8.67400e-03,  7.96400e-04, -5.75700e-04,  1.39200e-05,  2.59900e-05],
                           [-6.10600e-02, -6.17600e-02, -1.91100e-02,  9.48100e-03,  4.68100e-03, -3.93000e-04, -3.47300e-04,  7.97800e-05],
                           [-1.11500e-02, -4.93500e-02, -3.65100e-02, -1.48200e-03,  6.08900e-03,  1.60900e-03, -2.51700e-04, -1.27000e-04]])

# Reaction 3
chebyshev_reaction('gQOOHg (+ M) <=> gRO2 (+ M)',
                   Tmin=180.0, Tmax=1500.0,
                   Pmin=(0.01, 'atm'), Pmax=(98.692, 'atm'),
                   coeffs=[[ 3.87600e+00,  1.12700e+00, -6.05300e-02,  1.22400e-02, -2.76200e-03,  3.46600e-09,  2.20100e-04,  5.08700e-06],
                           [-4.49400e+00,  1.56700e+00,  7.20200e-03,  1.88700e-03, -7.56400e-04, -1.05500e-03,  6.35900e-04, -1.59600e-05],
                           [-3.64800e+00,  3.83500e-01,  1.22400e-01,  4.58900e-03, -4.04800e-03, -4.88200e-05,  3.12300e-04,  2.65300e-05],
                           [-2.00600e+00, -1.91400e-01,  5.21900e-02,  2.86700e-02, -4.42700e-03, -1.00200e-03,  3.45500e-04,  1.85800e-05],
                           [-9.14100e-01, -1.19600e-01, -3.82700e-02,  2.09700e-02,  3.52000e-03, -2.39500e-03, -2.32500e-05,  1.27200e-04],
                           [-4.46600e-01,  2.09200e-02, -1.23800e-02, -2.33000e-03,  4.34100e-03, -6.84900e-04, -6.75400e-04,  1.04500e-04],
                           [-2.60200e-01, -3.05800e-02,  4.14800e-02,  2.58200e-03, -2.26600e-03,  2.36900e-04, -3.52300e-04, -4.40600e-05],
                           [-1.51800e-01, -1.19100e-01,  1.73700e-02,  2.24100e-02, -9.40700e-04, -1.83700e-03,  1.17300e-04,  1.06400e-04],
                           [-7.31600e-02, -1.11600e-01, -4.12100e-02,  1.73200e-02,  7.69500e-03, -1.96100e-03, -4.58600e-04,  2.70000e-04],
                           [-1.46700e-02, -4.90000e-02, -5.30000e-02, -7.36000e-03,  8.25400e-03,  1.62600e-03, -8.21100e-04, -6.72300e-05]])

# Reaction 4
chebyshev_reaction('gQOOHb (+ M) <=> gRO2 (+ M)',
                   Tmin=180.0, Tmax=1500.0,
                   Pmin=(0.01, 'atm'), Pmax=(98.692, 'atm'),
                   coeffs=[[ 2.53500e+00,  1.00600e+00,  3.89600e-02,  7.08700e-03, -1.96500e-03, -1.02900e-04, -2.40500e-04,  1.33700e-05],
                           [-2.83900e+00,  1.19800e+00,  1.47500e-01,  4.08000e-03, -3.78700e-04, -3.59300e-04, -2.53400e-04, -3.39700e-05],
                           [-3.02900e+00,  3.05100e-01,  5.12300e-02,  1.26800e-02,  4.91800e-03,  1.75500e-04, -2.63600e-04, -8.06200e-05],
                           [-1.68600e+00, -2.65600e-02, -2.88400e-02,  2.72600e-03,  5.67700e-03,  1.04900e-03, -8.01900e-05, -1.08900e-04],
                           [-8.65900e-01, -6.21000e-02, -1.91400e-02,  9.85200e-04,  1.95900e-03,  1.65500e-04, -8.06400e-06, -2.63600e-05],
                           [-4.34800e-01, -6.01800e-02,  2.43200e-03,  9.75900e-03,  1.68000e-03, -6.86500e-04, -2.75500e-04, -2.12100e-05],
                           [-2.17300e-01, -7.66200e-02, -1.72400e-03,  1.21800e-02,  3.25300e-03, -1.96100e-04, -2.62800e-04, -5.09700e-05],
                           [-1.03500e-01, -8.22700e-02, -1.73000e-02,  6.33800e-03,  3.19200e-03,  4.54800e-04,  1.60200e-05,  4.14500e-06],
                           [-4.67100e-02, -6.12100e-02, -2.80400e-02, -5.19900e-04,  1.95800e-03,  6.60700e-04,  1.89500e-04,  5.69400e-05],
                           [-2.42500e-03, -3.21400e-02, -2.69500e-02, -5.72000e-03,  8.93200e-04,  8.21500e-04,  2.78300e-04,  3.66500e-05]])

# Reaction 5
chebyshev_reaction('O2 + gR (+ M) <=> gRO2 (+ M)',
                   Tmin=180.0, Tmax=1500.0,
                   Pmin=(0.01, 'atm'), Pmax=(98.692, 'atm'),
                   coeffs=[[ 9.90800e+00,  9.30600e-01, -2.56100e-01,  6.69100e-02, -1.61500e-02,  3.75100e-03, -6.72800e-04,  4.13200e-05],
                           [-2.32100e+00,  1.29300e+00, -1.94900e-01, -6.41400e-03,  1.75400e-02, -6.44700e-03,  1.49600e-03, -1.76600e-04],
                           [-1.49100e+00,  7.60500e-01, -3.03200e-03, -4.24300e-02,  1.40300e-02, -1.24400e-03, -6.17000e-04,  2.83000e-04],
                           [-9.80200e-01,  3.32000e-01,  9.14400e-02, -3.50400e-02,  2.04000e-03,  2.14600e-03, -7.42500e-04, -3.56600e-05],
                           [-6.30100e-01,  6.90600e-02,  9.94700e-02, -9.97700e-03, -5.79000e-03,  1.65500e-03,  1.02600e-04, -2.36700e-04],
                           [-3.84700e-01, -6.41700e-02,  6.85200e-02,  9.05600e-03, -5.94200e-03, -5.23400e-04,  5.07300e-04, -5.84100e-05],
                           [-2.16700e-01, -1.10800e-01,  2.95100e-02,  1.64200e-02, -2.28800e-03, -1.88800e-03,  2.22400e-04,  1.95900e-04],
                           [-1.07100e-01, -1.06400e-01, -2.32500e-03,  1.47100e-02,  1.36100e-03, -1.83500e-03, -2.30300e-04,  2.71500e-04],
                           [-4.04600e-02, -7.77200e-02, -2.12100e-02,  8.05800e-03,  3.38900e-03, -9.30900e-04, -4.27500e-04,  1.76800e-04],
                           [-4.86400e-03, -4.18000e-02, -2.79100e-02,  5.46400e-04,  3.49100e-03,  1.92500e-04, -3.16600e-04,  2.89500e-05]])
#  gRO2(+M) <=> gQOOH[O](+M)                           1.000e+00 0.000     0.000
#      TCHEB/ 180.000   1500.000 /
#      PCHEB/ 0.010     98.692   /
#      CHEB/ 10 8/
#      CHEB/ -7.660e+00   1.601e+00    -7.965e-02   -1.149e-02   -2.332e-03  /
#      CHEB/ 9.738e-04    -7.670e-06   -9.513e-05   4.809e+00    6.595e-01   /
#      CHEB/ 1.348e-01    2.148e-02    -7.542e-04   -3.133e-03   -6.429e-04  /
#      CHEB/ 2.525e-06    -2.902e+00   -7.477e-02   -1.091e-02   1.480e-02   /
#      CHEB/ 5.565e-03    7.510e-04    -3.345e-04   -2.658e-04   -1.531e+00  /
#      CHEB/ -7.054e-02   -8.480e-03   -1.923e-03   -8.377e-04   -1.454e-04  /
#      CHEB/ 9.564e-05    7.285e-05    -7.796e-01   -4.982e-02   1.494e-02   /
#      CHEB/ 7.476e-03    9.635e-04    -7.024e-04   -4.804e-04   -6.691e-05  /
#      CHEB/ -3.993e-01   -9.211e-02   4.793e-03    1.175e-02    4.219e-03   /
#      CHEB/ 6.202e-04    -2.743e-04   -1.407e-04   -2.274e-01   -9.077e-02  /
#      CHEB/ -1.397e-02   5.622e-03    4.092e-03    8.769e-04    4.732e-05   /
#      CHEB/ 2.211e-05    -1.133e-01   -7.828e-02   -2.532e-02   9.159e-04   /
#      CHEB/ 3.060e-03    6.354e-04    2.612e-05    3.974e-05    -2.182e-02  /
#      CHEB/ -7.213e-02   -2.917e-02   -5.850e-04   2.101e-03    9.102e-04   /
#      CHEB/ 1.127e-04    -2.619e-05   -7.230e-03   -2.019e-02   -2.743e-02  /
#      CHEB/ -6.734e-03   1.746e-03    1.221e-03    3.725e-04    1.569e-05   /

# Reaction 6
chebyshev_reaction('gQOOHa (+ M) <=> gQOOH[O] (+ M)',
                   Tmin=180.0, Tmax=1500.0,
                   Pmin=(0.01, 'atm'), Pmax=(98.692, 'atm'),
                   coeffs=[[-7.42300e+00,  9.98800e-01, -2.38600e-01,  2.30300e-02, -1.34000e-02,  3.31100e-04,  8.41300e-04, -4.08700e-04],
                           [ 2.52500e-01,  1.32400e+00,  2.60700e-01, -3.42300e-04,  1.05500e-02, -6.27600e-03, -1.74700e-03,  4.25400e-04],
                           [-3.69200e+00, -2.51300e-01,  7.43000e-02,  2.29500e-02, -9.45200e-04,  2.35200e-03,  1.43800e-04, -3.20100e-04],
                           [-1.87200e+00, -3.27200e-01, -1.59400e-02,  1.78900e-02, -5.11200e-03, -2.30800e-03,  7.44300e-04,  3.16100e-04],
                           [-8.15700e-01, -1.50100e-01, -2.96900e-02,  1.53700e-02,  3.86700e-03, -2.78200e-03, -9.56200e-04,  9.34300e-05],
                           [-3.29000e-01, -6.13300e-02, -1.26800e-02,  7.21500e-03,  5.57700e-03,  6.11600e-04, -7.78100e-04, -2.60300e-04],
                           [-1.67000e-01, -2.95700e-02,  5.57700e-03,  4.41600e-03,  1.90200e-03,  5.66900e-04,  8.88700e-06, -5.93600e-05],
                           [-9.41300e-02, -5.51700e-02,  2.16200e-04,  1.07400e-02,  1.91400e-03, -9.08800e-04, -1.16600e-04,  1.12600e-04],
                           [-2.91600e-02, -9.51200e-02, -2.18600e-02,  1.15400e-02,  4.89700e-03, -1.06100e-04, -4.90000e-04, -2.89200e-05],
                           [-2.25000e-02, -5.18000e-02, -3.96800e-02, -3.07900e-03,  6.69200e-03,  1.80800e-03, -2.30600e-04, -1.45600e-04]])

# Reaction 7
chebyshev_reaction('gQOOHg (+ M) <=> gQOOH[O] (+ M)',
                   Tmin=180.0, Tmax=1500.0,
                   Pmin=(0.01, 'atm'), Pmax=(98.692, 'atm'),
                   coeffs=[[-6.11700e+00,  1.44900e+00, -9.16600e-02, -3.75800e-02, -1.10100e-02,  8.35600e-05,  1.28300e-04,  1.86600e-04],
                           [-3.99200e+00,  1.58200e+00,  1.51300e-01,  6.32400e-02, -5.99000e-05, -6.34100e-03, -6.95800e-04, -2.46800e-04],
                           [-3.99300e+00, -1.12100e-01, -4.63000e-03,  1.06300e-03,  4.46500e-03,  3.91000e-03,  1.02500e-03, -9.75100e-05],
                           [-1.96500e+00, -2.23100e-01, -1.87000e-02, -6.37400e-03, -1.18300e-02, -6.83400e-04,  1.50300e-03,  5.97700e-04],
                           [-8.07900e-01, -1.20500e-02, -1.77500e-02,  1.27300e-02, -2.75400e-03, -4.57100e-03, -2.59100e-04,  3.60900e-04],
                           [-3.70800e-01,  6.11800e-02,  2.07500e-02,  6.45500e-03,  4.70700e-03, -1.32900e-03, -1.08900e-03,  1.96200e-05],
                           [-2.51900e-01, -1.53200e-02,  4.93500e-02,  9.21400e-03,  2.22700e-04,  5.37900e-04, -3.84500e-04, -1.10100e-04],
                           [-1.61900e-01, -1.21200e-01,  1.14600e-02,  2.32600e-02,  5.38500e-04, -1.35600e-03,  2.18300e-04,  6.34100e-05],
                           [-5.33900e-02, -1.46000e-01, -4.42700e-02,  1.54500e-02,  7.72700e-03, -1.37000e-03, -3.30200e-04,  2.69200e-04],
                           [-2.46400e-02, -4.46500e-02, -5.94700e-02, -9.70800e-03,  7.82200e-03,  1.71400e-03, -5.92600e-04,  4.93200e-06]])

# Reaction 8
chebyshev_reaction('gQOOHb (+ M) <=> gQOOH[O] (+ M)',
                   Tmin=180.0, Tmax=1500.0,
                   Pmin=(0.01, 'atm'), Pmax=(98.692, 'atm'),
                   coeffs=[[-7.67800e+00,  1.22400e+00,  3.10000e-02, -3.05500e-02, -1.22600e-02,  3.67200e-04, -8.26500e-05,  7.20900e-05],
                           [-2.19200e+00,  1.30700e+00,  2.48600e-01,  6.00300e-02,  4.47500e-03, -4.91200e-03, -1.56800e-03, -1.82200e-04],
                           [-3.26800e+00, -1.39400e-01, -1.02100e-01,  1.65600e-03,  1.16700e-02,  3.67900e-03,  4.45300e-04, -1.29700e-04],
                           [-1.67800e+00, -4.08200e-02, -7.65300e-02, -2.53700e-02, -4.36000e-03, -1.58700e-04,  5.88300e-04,  2.87900e-04],
                           [-7.83800e-01,  3.72800e-02,  1.35100e-02,  4.47300e-03, -1.75700e-03, -2.02500e-03, -7.15600e-04, -1.06600e-04],
                           [-3.68700e-01, -3.71900e-02,  2.49300e-02,  2.03900e-02,  4.32800e-03,  5.96000e-05, -4.32700e-04, -2.02500e-04],
                           [-2.09300e-01, -7.49700e-02, -3.62200e-03,  1.36800e-02,  5.10700e-03,  8.13900e-04,  1.59600e-04,  1.92300e-05],
                           [-1.12000e-01, -8.79000e-02, -2.50200e-02,  4.20100e-03,  3.22300e-03,  6.25700e-04,  1.96700e-04,  6.99300e-05],
                           [-1.89600e-02, -9.24200e-02, -3.01200e-02, -9.27800e-04,  1.31800e-03,  8.58300e-04,  1.17800e-04,  1.39200e-05],
                           [-1.29500e-02, -2.80300e-02, -3.01100e-02, -6.81800e-03,  1.20000e-03,  8.50600e-04,  2.93200e-04,  1.00700e-05]])

# Reaction 9
chebyshev_reaction('O2 + gR (+ M) <=> gQOOH[O] (+ M)',
                   Tmin=180.0, Tmax=1500.0,
                   Pmin=(0.01, 'atm'), Pmax=(98.692, 'atm'),
                   coeffs=[[ 4.96900e-01,  1.98800e+00, -1.01000e-02,  8.16800e-02, -1.72400e-02, -2.08000e-03, -6.77100e-03, -3.08100e-03],
                           [-2.62900e+00,  3.44400e-01, -3.67200e-01,  5.65700e-03,  2.11000e-02, -2.01800e-03,  7.01700e-03,  2.80400e-03],
                           [-1.62200e+00,  4.30100e-01, -1.46600e-01, -8.34100e-02,  9.29800e-03,  1.08800e-03,  1.23700e-03,  1.25700e-03],
                           [-9.10900e-01,  3.84700e-01,  7.02300e-02, -5.84200e-02, -9.00500e-03, -1.73700e-03, -1.73200e-03, -1.32900e-04],
                           [-5.36400e-01,  1.71700e-01,  1.35600e-01, -3.63500e-03, -6.77800e-03,  8.41700e-05, -7.46200e-04, -5.43900e-04],
                           [-3.11300e-01, -3.29500e-02,  9.71100e-02,  2.01000e-02, -2.26200e-03,  4.89800e-04,  4.65300e-04, -2.22500e-04],
                           [-2.10400e-01, -9.90000e-02,  3.12800e-02,  1.98100e-02, -1.47500e-04, -8.99100e-04,  6.85200e-04,  3.24000e-04],
                           [-1.18500e-01, -1.10700e-01, -1.11800e-02,  1.32100e-02,  1.38900e-03, -1.57100e-03,  7.73600e-05,  4.11700e-04],
                           [-2.09200e-02, -1.12000e-01, -2.38000e-02,  5.35200e-03,  2.46100e-03, -9.57000e-04, -4.79100e-04,  2.04400e-04],
                           [-1.46200e-02, -3.66000e-02, -3.43300e-02, -1.09100e-03,  3.06800e-03,  8.66200e-05, -2.46500e-04,  4.19100e-05]])
#  gRO2(+M) <=> gQOOHa(+M)                             1.000e+00 0.000     0.000
#      TCHEB/ 180.000   1500.000 /
#      PCHEB/ 0.010     98.692   /
#      CHEB/ 10 8/
#      CHEB/ -1.033e+00   8.233e-01    -4.821e-02   1.548e-02    -9.200e-04  /
#      CHEB/ 7.478e-05    -5.743e-05   -5.974e-05   1.933e+00    1.064e+00   /
#      CHEB/ 4.556e-02    1.092e-05    4.442e-03    -8.827e-04   -9.547e-05  /
#      CHEB/ -5.843e-05   -2.859e+00   1.669e-01    1.377e-01    8.463e-03   /
#      CHEB/ -1.437e-03   4.478e-04    -2.590e-04   -1.048e-04   -1.728e+00  /
#      CHEB/ -2.689e-01   6.633e-02    3.115e-02    -9.376e-04   -8.308e-04  /
#      CHEB/ -6.646e-05   -1.135e-04   -8.763e-01   -2.508e-01   -2.052e-02  /
#      CHEB/ 2.238e-02    6.075e-03    -1.082e-03   -5.564e-04   -2.706e-05  /
#      CHEB/ -3.842e-01   -1.110e-01   -3.169e-02   2.473e-03    6.005e-03   /
#      CHEB/ 6.681e-04    -7.208e-04   -1.443e-04   -1.906e-01   -4.225e-02  /
#      CHEB/ -6.993e-03   5.574e-04    9.295e-04    8.335e-04    -1.544e-04  /
#      CHEB/ -1.806e-04   -7.256e-02   -4.906e-02   2.182e-04    8.674e-03   /
#      CHEB/ 7.964e-04    -5.757e-04   1.392e-05    2.599e-05    -6.106e-02  /
#      CHEB/ -6.176e-02   -1.911e-02   9.481e-03    4.681e-03    -3.930e-04  /
#      CHEB/ -3.473e-04   7.978e-05    -1.127e-02   -4.935e-02   -3.651e-02  /
#      CHEB/ -1.482e-03   6.089e-03    1.609e-03    -2.517e-04   -1.270e-04  /
#  gQOOH[O](+M) <=> gQOOHa(+M)                         1.000e+00 0.000     0.000
#      TCHEB/ 180.000   1500.000 /
#      PCHEB/ 0.010     98.692   /
#      CHEB/ 10 8/
#      CHEB/ 3.373e-01    9.988e-01    -2.386e-01   2.303e-02    -1.340e-02  /
#      CHEB/ 3.311e-04    8.413e-04    -4.087e-04   -5.222e+00   1.324e+00   /
#      CHEB/ 2.607e-01    -3.423e-04   1.055e-02    -6.276e-03   -1.747e-03  /
#      CHEB/ 4.254e-04    -3.704e+00   -2.513e-01   7.430e-02    2.295e-02   /
#      CHEB/ -9.452e-04   2.352e-03    1.438e-04    -3.201e-04   -1.922e+00  /
#      CHEB/ -3.272e-01   -1.594e-02   1.789e-02    -5.112e-03   -2.308e-03  /
#      CHEB/ 7.443e-04    3.161e-04    -8.408e-01   -1.501e-01   -2.969e-02  /
#      CHEB/ 1.537e-02    3.867e-03    -2.782e-03   -9.562e-04   9.343e-05   /
#      CHEB/ -3.383e-01   -6.133e-02   -1.268e-02   7.215e-03    5.577e-03   /
#      CHEB/ 6.116e-04    -7.781e-04   -2.603e-04   -1.703e-01   -2.957e-02  /
#      CHEB/ 5.577e-03    4.416e-03    1.902e-03    5.669e-04    8.887e-06   /
#      CHEB/ -5.936e-05   -9.542e-02   -5.517e-02   2.162e-04    1.074e-02   /
#      CHEB/ 1.914e-03    -9.088e-04   -1.166e-04   1.126e-04    -2.963e-02  /
#      CHEB/ -9.512e-02   -2.186e-02   1.154e-02    4.897e-03    -1.061e-04  /