units(length='cm', time='s', quantity='mol', act_energy='kcal/mol')

ideal_gas(name='gas',
          elements="H D T C Ci O Oi N Ne Ar He Si S F Cl Br I X",
          species="""propene3ol       OH               disub_c4ether
                     H2O              disub_epoxy      gQOOHa
                     propene1ol       gQOOHb           ipropylOOH
                     galdoxy          galkene          CH2O
                     O2               gRO2             gQOOHg
                     gR               galdol           monosub_c4ether
                     HO2              gQOOH[O]""",
          reactions='all',
          initial_state=state(temperature=300.0, pressure=OneAtm))

#-------------------------------------------------------------------------------
# Element data
#-------------------------------------------------------------------------------

element(symbol='Ci', atomic_mass=13.003)
element(symbol='D', atomic_mass=2.014)
element(symbol='Oi', atomic_mass=18.0)
element(symbol='T', atomic_mass=3.016)
element(symbol='X', atomic_mass=195.083)
#-------------------------------------------------------------------------------
# Species data
#-------------------------------------------------------------------------------

species(name='propene3ol',
        atoms='C:3 H:6 O:1',
        thermo=(NASA([10.00, 444.81],
                     [ 3.92769709E+00,  4.89977303E-03,  1.13094874E-04,
                      -2.59008187E-07,  1.86205760E-10, -1.72645920E+04,
                       9.90805416E+00]),
                NASA([444.81, 3000.00],
                     [ 2.61720343E+00,  3.01777872E-02, -1.76511625E-05,
                       5.14864061E-09, -5.91153761E-13, -1.72814925E+04,
                       1.36683107E+01])))

species(name='OH',
        atoms='H:1 O:1',
        thermo=(NASA([10.00, 984.14],
                     [ 3.49686242E+00,  1.83973160E-04, -9.97634499E-07,
                       1.56942783E-09, -6.10128175E-13,  3.41673934E+03,
                       1.48093120E+00]),
                NASA([984.14, 3000.00],
                     [ 3.45221464E+00, -2.95124034E-04,  7.39418622E-07,
                      -2.89309866E-10,  3.53041498E-14,  3.45751599E+03,
                       1.85813897E+00])))

species(name='disub_c4ether',
        atoms='C:4 H:8 O:2',
        thermo=(NASA([10.00, 413.50],
                     [ 3.78241323E+00,  1.89501763E-02,  8.65302396E-05,
                      -1.80580575E-07,  1.13656264E-10, -3.74244046E+04,
                       1.09982450E+01]),
                NASA([413.50, 3000.00],
                     [ 4.29420885E-01,  5.13851903E-02, -3.11292293E-05,
                       9.11498284E-09, -1.03192718E-12, -3.71471103E+04,
                       2.42134976E+01])))

species(name='H2O',
        atoms='H:2 O:1',
        thermo=(NASA([10.00, 773.84],
                     [ 4.00473541E+00, -2.39729134E-04,  8.11862955E-07,
                       1.47891862E-09, -1.19783539E-12, -3.03533807E+04,
                      -9.96254147E-02]),
                NASA([773.84, 3000.00],
                     [ 3.52133374E+00,  1.05377009E-03,  6.40722099E-07,
                      -3.86240235E-10,  5.49243294E-14, -3.02424794E+04,
                       2.34173094E+00])))

species(name='disub_epoxy',
        atoms='C:4 H:8 O:2',
        thermo=(NASA([10.00, 549.41],
                     [ 3.89863211E+00,  5.97532637E-03,  1.66685676E-04,
                      -3.10743768E-07,  1.78330192E-10, -3.86169011E+04,
                       1.13847308E+01]),
                NASA([549.41, 3000.00],
                     [-6.40277648E-01,  6.05960003E-02, -4.13427220E-05,
                       1.31555461E-08, -1.57685017E-12, -3.84437843E+04,
                       2.76005436E+01])))

species(name='gQOOHa',
        atoms='C:4 H:9 O:3',
        thermo=(NASA([10.00, 160.74],
                     [ 3.80808147E+00,  2.31043884E-02,  5.26945984E-04,
                      -3.11500696E-06,  6.03881958E-09, -2.55661950E+04,
                       1.17645316E+01]),
                NASA([160.74, 3000.00],
                     [ 2.90630300E+00,  6.50241173E-02, -4.60073244E-05,
                       1.51330930E-08, -1.87074267E-12, -2.55623704E+04,
                       1.36838819E+01])))

species(name='propene1ol',
        atoms='C:3 H:6 O:1',
        thermo=(NASA([10.00, 459.42],
                     [ 3.91245344E+00,  5.85800161E-03,  1.15412006E-04,
                      -2.68014417E-07,  1.91800131E-10, -1.80357012E+04,
                       8.14807684E+00]),
                NASA([459.42, 3000.00],
                     [ 3.14049093E+00,  2.95550898E-02, -1.73843684E-05,
                       5.11506211E-09, -5.92966137E-13, -1.81439237E+04,
                       9.32215170E+00])))

species(name='gQOOHb',
        atoms='C:4 H:9 O:3',
        thermo=(NASA([10.00, 1018.67],
                     [ 3.99028351E+00,  4.29665712E-02,  2.28338778E-05,
                      -5.67914439E-08,  2.29383258E-11, -2.39353069E+04,
                       1.20326731E+01]),
                NASA([1018.67, 3000.00],
                     [ 1.38304153E+01,  3.88527019E-02, -2.19473905E-05,
                       5.78719895E-09, -5.85097740E-13, -2.77313917E+04,
                      -4.44147388E+01])))

species(name='ipropylOOH',
        atoms='C:3 H:7 O:2',
        thermo=(NASA([10.00, 405.01],
                     [ 3.30075623E+00,  7.58672756E-02, -3.35754269E-04,
                       8.05972164E-07, -6.68864582E-10,  7.37548808E+02,
                       1.43372849E+01]),
                NASA([405.01, 3000.00],
                     [ 2.51742509E+00,  3.72760950E-02, -2.12450220E-05,
                       5.83593926E-09, -6.22110649E-13,  1.18095641E+03,
                       2.20991392E+01])))

species(name='galdoxy',
        atoms='C:4 H:7 O:2',
        thermo=(NASA([10.00, 209.62],
                     [ 3.82641108E+00,  1.84758886E-02,  3.43073800E-04,
                      -1.82817005E-06,  2.98516720E-09, -2.02116235E+04,
                       1.17972706E+01]),
                NASA([209.62, 3000.00],
                     [ 4.22049016E+00,  4.03370149E-02, -2.36129482E-05,
                       6.72979114E-09, -7.47862493E-13, -2.02926933E+04,
                       8.97211724E+00])))

species(name='galkene',
        atoms='C:4 H:8 O:1',
        thermo=(NASA([10.00, 383.47],
                     [ 3.84035604E+00,  1.20378740E-02,  1.87486319E-04,
                      -5.44759148E-07,  4.80711015E-10, -2.12295488E+04,
                       1.02570291E+01]),
                NASA([383.47, 3000.00],
                     [ 4.00413385E+00,  3.79025144E-02, -2.15435710E-05,
                       6.15213311E-09, -6.97446345E-13, -2.14448382E+04,
                       6.98052628E+00])))

species(name='CH2O',
        atoms='C:1 H:2 O:1',
        thermo=(NASA([10.00, 601.31],
                     [ 4.03190845E+00, -1.93233367E-03,  8.89743345E-06,
                       2.98105926E-09, -7.90813886E-12, -1.42276270E+04,
                       3.47574660E+00]),
                NASA([601.31, 3000.00],
                     [ 1.40134195E+00,  9.48858016E-03, -4.43088317E-06,
                       9.48452194E-10, -7.43790219E-14, -1.38013869E+04,
                       1.57423780E+01])))

species(name='O2',
        atoms='O:2',
        thermo=(NASA([10.00, 605.96],
                     [ 3.50743498E+00, -4.43860349E-04,  1.45938058E-06,
                       1.61509333E-09, -2.32050052E-12, -9.24756224E+02,
                       4.72183634E+00]),
                NASA([605.96, 3000.00],
                     [ 2.87462882E+00,  2.17840991E-03, -1.18262921E-06,
                       2.86910493E-10, -2.53297146E-14, -8.19517838E+02,
                       7.69331810E+00])))

species(name='gRO2',
        atoms='C:4 H:9 O:3',
        thermo=(NASA([10.00, 177.33],
                     [ 3.70632176E+00,  3.49733664E-02,  4.64036392E-04,
                      -3.18637835E-06,  6.38178607E-09, -2.84940710E+04,
                       1.24459269E+01]),
                NASA([177.33, 3000.00],
                     [ 4.82062697E+00,  5.17179689E-02, -3.18386818E-05,
                       9.52247045E-09, -1.10180288E-12, -2.85994416E+04,
                       7.14082953E+00])))

species(name='gQOOHg',
        atoms='C:4 H:9 O:3',
        thermo=(NASA([10.00, 475.03],
                     [ 3.42273720E+00,  4.98344215E-02,  6.47820920E-05,
                      -2.49842966E-07,  1.98636537E-10, -2.19724085E+04,
                       1.41578583E+01]),
                NASA([475.03, 3000.00],
                     [ 5.94049074E+00,  5.53778585E-02, -3.71708255E-05,
                       1.17540477E-08, -1.40812095E-12, -2.25133628E+04,
                       7.09201218E-01])))

species(name='gR',
        atoms='C:4 H:9 O:1',
        thermo=(NASA([10.00, 638.24],
                     [ 3.37074633E+00,  5.17529751E-02, -6.54872940E-05,
                       6.88084237E-08, -3.21569794E-11, -1.06175440E+04,
                       1.14339669E+01]),
                NASA([638.24, 3000.00],
                     [ 3.99410860E+00,  4.06314915E-02, -2.23932510E-05,
                       6.08356263E-09, -6.49884708E-13, -1.05501693E+04,
                       9.85769960E+00])))

species(name='galdol',
        atoms='C:4 H:8 O:2',
        thermo=(NASA([10.00, 506.68],
                     [ 3.85380874E+00,  9.21272695E-03,  1.86712348E-04,
                      -3.96417049E-07,  2.55528268E-10, -4.57714739E+04,
                       1.24312743E+01]),
                NASA([506.68, 3000.00],
                     [ 1.49710213E+00,  5.65979142E-02, -3.87709084E-05,
                       1.23682052E-08, -1.48287964E-12, -4.59020833E+04,
                       1.85531759E+01])))

species(name='monosub_c4ether',
        atoms='C:4 H:8 O:2',
        thermo=(NASA([10.00, 380.36],
                     [ 3.47743996E+00,  6.08051311E-02, -2.78518945E-04,
                       8.23182713E-07, -7.87158031E-10, -3.37941455E+04,
                       1.06415154E+01]),
                NASA([380.36, 3000.00],
                     [-1.09346901E+00,  5.35985968E-02, -3.21081420E-05,
                       9.20818293E-09, -1.01830294E-12, -3.30465855E+04,
                       3.35312368E+01])))

species(name='HO2',
        atoms='H:1 O:2',
        thermo=(NASA([10.00, 891.11],
                     [ 4.02887004E+00, -1.75769289E-03,  1.08726004E-05,
                      -1.13812972E-08,  3.90113097E-12,  4.95165001E+02,
                       4.69302008E+00]),
                NASA([891.11, 3000.00],
                     [ 3.06571044E+00,  4.28505005E-03, -2.19325920E-06,
                       5.58882699E-10, -5.61246669E-14,  5.98557610E+02,
                       8.84564156E+00])))

species(name='gQOOH[O]',
        atoms='C:4 H:9 O:3',
        thermo=(NASA([10.00, 535.23],
                     [ 3.83107445E+00,  1.02302002E-02,  2.29377261E-04,
                      -4.59095575E-07,  2.77765018E-10, -2.15196648E+04,
                       1.41034859E+01]),
                NASA([535.23, 3000.00],
                     [-4.19283096E-01,  7.69784620E-02, -5.57279000E-05,
                       1.81378295E-08, -2.18295635E-12, -2.15657781E+04,
                       2.72711816E+01])))

#-------------------------------------------------------------------------------
# Reaction data
#-------------------------------------------------------------------------------

# Reaction 1
chebyshev_reaction('gQOOH[O] (+ M) <=> gRO2 (+ M)',
                   Tmin=180.0, Tmax=1500.0,
                   Pmin=(0.01, 'atm'), Pmax=(98.692, 'atm'),
                   coeffs=[[ 5.14600e+00,  9.84400e-01, -1.06900e-01, -1.79500e-04,  1.67100e-03,  4.26200e-04,  2.41100e-04,  1.30900e-05],
                           [-2.01200e+00,  1.04900e+00,  1.88100e-02, -2.30200e-02, -5.22200e-04,  2.21300e-03,  5.64100e-04, -1.74200e-04],
                           [-2.92500e+00,  8.36500e-02,  7.87700e-02,  1.31600e-02, -3.74000e-03, -6.58400e-05,  5.58300e-04, -2.65300e-05],
                           [-1.76000e+00, -2.10900e-01, -1.94100e-03,  2.08300e-02,  5.66100e-03, -6.00200e-04, -5.37100e-04, -4.09700e-05],
                           [-9.14200e-01, -1.59400e-01, -3.41000e-02,  3.29300e-03,  6.05800e-03,  1.38600e-03, -4.39800e-04, -2.67700e-04],
                           [-4.52000e-01, -7.43100e-02, -1.13100e-02, -2.07800e-03,  4.87300e-05,  7.34200e-04,  2.33600e-04, -5.14300e-05],
                           [-2.13700e-01, -4.28400e-02,  9.56800e-03,  5.22900e-03, -1.44300e-03, -1.16100e-03, -7.27700e-07,  2.04300e-04],
                           [-1.07900e-01, -4.30700e-02,  4.94800e-03,  1.02600e-02,  1.35600e-03, -1.23500e-03, -4.91200e-04,  8.75800e-05],
                           [-4.58900e-02, -4.83600e-02, -1.03100e-02,  6.17700e-03,  3.26400e-03,  1.41900e-04, -3.35500e-04, -1.04700e-04],
                           [-2.00500e-02, -3.70400e-02, -2.25600e-02, -1.32500e-03,  2.26300e-03,  1.01600e-03,  1.89900e-04, -6.47300e-05]])

# Reaction 2
chebyshev_reaction('gQOOHa (+ M) <=> gRO2 (+ M)',
                   Tmin=180.0, Tmax=1500.0,
                   Pmin=(0.01, 'atm'), Pmax=(98.692, 'atm'),
                   coeffs=[[ 2.40400e+00,  5.62700e-01, -1.01200e-02,  7.27700e-03, -3.32100e-04,  5.71100e-05, -2.06100e-05, -1.99200e-05],
                           [ 1.19200e+00,  9.11500e-01,  1.54700e-02,  9.08400e-03,  3.29200e-04, -5.74700e-05, -3.82500e-05, -4.11500e-05],
                           [-2.42000e+00,  4.31900e-01,  7.49700e-02,  3.32600e-03,  1.03300e-03, -9.69500e-05, -1.08200e-04, -3.03600e-05],
                           [-1.71800e+00, -3.00500e-03,  8.70000e-02,  7.34200e-03,  4.48000e-04, -1.92400e-05, -1.64000e-04, -2.83900e-05],
                           [-1.04100e+00, -2.07600e-01,  4.31900e-02,  1.41600e-02,  4.91600e-04, -1.36300e-04, -1.36600e-04, -2.92700e-05],
                           [-5.21300e-01, -2.05100e-01, -9.19800e-03,  1.26000e-02,  1.73700e-03, -2.21400e-04, -8.78700e-05, -9.67600e-06],
                           [-1.94900e-01, -1.18500e-01, -3.10300e-02,  3.59400e-03,  2.18600e-03,  3.94200e-05, -2.85100e-05,  1.89600e-05],
                           [-8.41600e-02, -4.40500e-02, -2.31200e-02, -3.35700e-03,  7.97000e-04,  3.45000e-04,  9.33200e-05,  3.53200e-05],
                           [-1.21600e-02, -1.12700e-02, -8.08200e-03, -3.25600e-03, -7.81700e-04,  2.43400e-04,  2.11900e-04,  4.07000e-05],
                           [-1.37600e-02, -7.18300e-03, -2.28800e-03,  5.51300e-04, -6.55700e-04, -9.61000e-05,  1.74500e-04,  3.35000e-05]])

# Reaction 3
chebyshev_reaction('gQOOHg (+ M) <=> gRO2 (+ M)',
                   Tmin=180.0, Tmax=1500.0,
                   Pmin=(0.01, 'atm'), Pmax=(98.692, 'atm'),
                   coeffs=[[ 2.71300e+00,  6.41600e-01, -3.53800e-02,  8.07200e-03,  5.64600e-04, -4.22200e-04,  1.70400e-05,  6.70000e-05],
                           [ 7.25000e-01,  1.10400e+00, -3.24600e-02,  9.74500e-03,  1.75900e-03, -7.02300e-04, -2.09800e-05,  1.03500e-04],
                           [-2.22800e+00,  6.69200e-01,  4.66900e-02, -3.33400e-04,  2.01600e-03, -1.95400e-04, -1.56100e-04,  2.09200e-05],
                           [-1.87900e+00,  1.96700e-01,  9.91100e-02, -2.85300e-04,  4.08400e-04,  3.67700e-04, -2.35700e-04, -8.95800e-05],
                           [-1.29000e+00, -1.30900e-01,  8.94300e-02,  1.05700e-02, -1.43800e-03,  3.51200e-04, -1.80100e-04, -1.62700e-04],
                           [-7.01300e-01, -2.56300e-01,  3.56500e-02,  2.02200e-02, -9.22800e-04, -3.40700e-04, -9.63100e-05, -1.26600e-04],
                           [-2.88200e-01, -2.28200e-01, -1.97400e-02,  1.85100e-02,  1.77500e-03, -9.30400e-04, -1.29700e-04,  1.11700e-05],
                           [-1.18800e-01, -1.33000e-01, -4.70200e-02,  6.61400e-03,  3.78400e-03, -6.46400e-04, -2.10300e-04,  1.43300e-04],
                           [ 9.55200e-03, -4.03000e-02, -4.29900e-02, -6.46900e-03,  2.88300e-03,  3.57700e-04, -1.00400e-04,  1.63600e-04],
                           [ 1.62000e-02,  1.64000e-02, -2.22700e-02, -1.27700e-02, -2.77600e-04,  1.20000e-03,  2.78500e-04,  7.27600e-05]])

# Reaction 4
chebyshev_reaction('gQOOHb (+ M) <=> gRO2 (+ M)',
                   Tmin=180.0, Tmax=1500.0,
                   Pmin=(0.01, 'atm'), Pmax=(98.692, 'atm'),
                   coeffs=[[-2.23600e+00,  1.06900e+00,  2.45300e-02, -8.93100e-03, -2.71300e-03, -1.08400e-04,  3.18800e-04,  2.09200e-05],
                           [ 1.80500e+00,  1.63900e+00,  7.62000e-02, -1.07200e-02, -3.04400e-03, -6.01500e-04,  4.05500e-04,  2.65300e-05],
                           [-2.26900e+00,  6.62200e-01,  7.47900e-02,  1.47600e-02,  3.51700e-04, -9.78000e-04, -6.32100e-05, -2.72400e-05],
                           [-1.56200e+00, -3.32000e-02,  1.62500e-02,  3.03400e-02,  4.45500e-03, -9.38500e-04, -3.71400e-04, -6.14000e-05],
                           [-9.57200e-01, -2.31200e-01, -2.94800e-02,  2.02700e-02,  5.24500e-03, -1.79000e-05, -3.16600e-04, -5.62100e-05],
                           [-5.24400e-01, -1.61400e-01, -2.61400e-02,  3.84600e-03,  1.16100e-03,  6.25000e-04,  4.97500e-05, -6.71400e-06],
                           [-2.21400e-01, -7.22100e-02, -2.90400e-03, -1.32100e-03, -2.43300e-03,  1.52700e-04,  2.47400e-04,  6.61300e-05],
                           [-1.10000e-01, -3.91700e-02,  5.34300e-03,  2.06300e-03, -1.95600e-03, -3.97400e-04,  7.42800e-05,  6.77500e-05],
                           [-3.21000e-02, -3.54000e-02, -2.82000e-03,  3.75700e-03,  6.40500e-04, -1.74400e-04, -1.08900e-04, -4.84300e-06],
                           [-1.97000e-02, -2.84500e-02, -1.35500e-02,  1.20400e-03,  2.02800e-03,  4.14200e-04, -5.03900e-05, -4.58700e-05]])

# Reaction 5
chebyshev_reaction('O2 + gR (+ M) <=> gRO2 (+ M)',
                   Tmin=180.0, Tmax=1500.0,
                   Pmin=(0.01, 'atm'), Pmax=(98.692, 'atm'),
                   coeffs=[[ 1.13000e+01,  6.56700e-01, -1.40100e-01,  3.62800e-02, -9.62400e-03,  2.19000e-03, -3.58800e-04,  1.73500e-05],
                           [-2.11800e+00,  1.02300e+00, -1.36900e-01,  1.26500e-02,  2.73400e-03, -2.45700e-03,  9.33500e-04, -2.12500e-04],
                           [-1.38100e+00,  6.44600e-01, -1.54500e-02, -1.34100e-02,  5.48600e-03, -1.50800e-03,  1.79700e-04,  3.42000e-05],
                           [-9.24900e-01,  3.03000e-01,  5.52600e-02, -1.61800e-02,  2.37600e-03, -1.69100e-04, -1.68200e-04,  6.60600e-05],
                           [-6.04500e-01,  7.98000e-02,  6.67300e-02, -5.39700e-03, -1.04500e-03,  2.63200e-04, -1.39600e-04,  2.49900e-05],
                           [-3.77000e-01, -3.74900e-02,  4.83900e-02,  4.01300e-03, -1.63900e-03, -5.06500e-05, -3.26100e-05,  9.94800e-06],
                           [-2.19700e-01, -8.20700e-02,  2.28300e-02,  7.79600e-03, -7.06300e-04, -2.65900e-04, -3.26300e-06,  1.20400e-05],
                           [-1.14500e-01, -8.48700e-02,  1.65600e-03,  6.95600e-03,  3.57500e-04, -2.25600e-04,  2.30600e-05,  5.74300e-06],
                           [-4.82700e-02, -6.60000e-02, -1.23100e-02,  4.08300e-03,  9.05400e-04, -4.69100e-05,  6.62600e-05,  1.35000e-06],
                           [-1.00500e-02, -3.99900e-02, -1.84700e-02,  5.11900e-04,  1.10400e-03,  1.17500e-04,  9.63900e-05,  5.92900e-06]])
#  gRO2(+M) <=> gQOOH[O](+M)                           1.000e+00 0.000     0.000
#      TCHEB/ 180.000   1500.000 /
#      PCHEB/ 0.010     98.692   /
#      CHEB/ 10 8/
#      CHEB/ -4.763e+00   9.844e-01    -1.069e-01   -1.795e-04   1.671e-03   /
#      CHEB/ 4.262e-04    2.411e-04    1.309e-05    5.128e+00    1.049e+00   /
#      CHEB/ 1.881e-02    -2.302e-02   -5.222e-04   2.213e-03    5.641e-04   /
#      CHEB/ -1.742e-04   -2.752e+00   8.365e-02    7.877e-02    1.316e-02   /
#      CHEB/ -3.740e-03   -6.584e-05   5.583e-04    -2.653e-05   -1.635e+00  /
#      CHEB/ -2.109e-01   -1.941e-03   2.083e-02    5.661e-03    -6.002e-04  /
#      CHEB/ -5.371e-04   -4.097e-05   -8.606e-01   -1.594e-01   -3.410e-02  /
#      CHEB/ 3.293e-03    6.058e-03    1.386e-03    -4.398e-04   -2.677e-04  /
#      CHEB/ -4.329e-01   -7.431e-02   -1.131e-02   -2.078e-03   4.873e-05   /
#      CHEB/ 7.342e-04    2.336e-04    -5.143e-05   -2.075e-01   -4.284e-02  /
#      CHEB/ 9.568e-03    5.229e-03    -1.443e-03   -1.161e-03   -7.277e-07  /
#      CHEB/ 2.043e-04    -1.060e-01   -4.307e-02   4.948e-03    1.026e-02   /
#      CHEB/ 1.356e-03    -1.235e-03   -4.912e-04   8.758e-05    -4.542e-02  /
#      CHEB/ -4.836e-02   -1.031e-02   6.177e-03    3.264e-03    1.419e-04   /
#      CHEB/ -3.355e-04   -1.047e-04   -2.008e-02   -3.704e-02   -2.256e-02  /
#      CHEB/ -1.325e-03   2.263e-03    1.016e-03    1.899e-04    -6.473e-05  /

# Reaction 6
chebyshev_reaction('gQOOHa (+ M) <=> gQOOH[O] (+ M)',
                   Tmin=180.0, Tmax=1500.0,
                   Pmin=(0.01, 'atm'), Pmax=(98.692, 'atm'),
                   coeffs=[[-5.27100e+00, -9.74000e-02, -1.93000e-01, -5.98400e-03,  3.10100e-03,  1.26500e-03,  1.95100e-04,  9.12200e-07],
                           [ 2.75800e+00,  1.86600e+00,  9.02700e-02, -3.35900e-02, -9.48200e-03,  3.73600e-03,  1.53600e-03, -3.01200e-04],
                           [-3.21900e+00,  1.61400e-01,  1.59600e-01,  3.17100e-02, -3.31800e-03, -2.93800e-03,  1.10600e-04,  2.61400e-04],
                           [-2.06500e+00, -3.39800e-01,  1.85500e-02,  3.04900e-02,  1.27000e-02, -2.13700e-04, -1.81800e-03, -3.81400e-04],
                           [-1.04400e+00, -2.94000e-01, -3.80300e-02,  1.18800e-03,  7.31100e-03,  3.57900e-03, -3.20800e-04, -6.70300e-04],
                           [-4.40200e-01, -1.42900e-01, -2.39700e-02, -5.94300e-03, -2.61000e-03,  1.17500e-03,  9.28400e-04,  4.29800e-05],
                           [-1.48800e-01, -4.11700e-02, -1.50200e-03,  2.00500e-03, -3.77100e-03, -1.89600e-03,  2.52300e-04,  4.29600e-04],
                           [-4.52300e-02, -8.95200e-03,  6.21900e-03,  7.56100e-03,  5.83400e-05, -1.79100e-03, -5.62600e-04,  1.60800e-04],
                           [-1.63100e-02, -1.67200e-02,  1.18300e-03,  6.55300e-03,  2.37500e-03, -8.48100e-05, -3.90800e-04, -1.32800e-04],
                           [-1.38500e-02, -2.77600e-02, -9.04200e-03,  2.69200e-03,  2.09800e-03,  8.28000e-04,  1.66700e-04, -1.06100e-04]])

# Reaction 7
chebyshev_reaction('gQOOHg (+ M) <=> gQOOH[O] (+ M)',
                   Tmin=180.0, Tmax=1500.0,
                   Pmin=(0.01, 'atm'), Pmax=(98.692, 'atm'),
                   coeffs=[[-3.95700e+00,  2.47300e-01, -2.53400e-01, -1.97400e-02,  4.59000e-03,  3.14000e-03,  5.13800e-04, -2.34000e-04],
                           [ 1.06400e+00,  1.88800e+00,  1.25600e-01, -4.04300e-02, -1.33500e-02,  2.58500e-03,  2.63300e-03,  1.03000e-04],
                           [-2.83000e+00,  2.25400e-01,  1.02700e-01,  5.75200e-02,  1.70700e-03, -6.61300e-03, -1.18800e-03,  7.19700e-04],
                           [-2.17900e+00, -1.57800e-01, -1.41400e-03,  1.97300e-02,  2.01900e-02,  1.34800e-03, -3.19600e-03, -8.74900e-04],
                           [-1.27100e+00, -1.69200e-01,  5.54000e-03, -1.57800e-02,  5.46300e-03,  6.22000e-03, -8.95700e-05, -1.14700e-03],
                           [-6.13700e-01, -1.71100e-01,  3.25600e-02, -2.67200e-03, -8.63900e-03,  1.33500e-03,  1.59900e-03, -1.50500e-05],
                           [-2.37600e-01, -1.52900e-01,  1.86400e-02,  1.87500e-02, -5.78000e-03, -3.54700e-03,  4.07400e-04,  5.97900e-04],
                           [-7.30700e-02, -9.61900e-02, -1.90700e-02,  2.02800e-02,  3.58200e-03, -3.28100e-03, -9.55000e-04,  3.64600e-04],
                           [ 3.69700e-04, -4.97800e-02, -3.42000e-02,  3.16000e-03,  7.20400e-03,  1.20400e-04, -9.50000e-04, -1.85000e-06],
                           [ 1.30000e-02, -4.12400e-03, -3.14300e-02, -1.10400e-02,  3.03000e-03,  2.40500e-03,  1.52400e-04, -1.46600e-04]])

# Reaction 8
chebyshev_reaction('gQOOHb (+ M) <=> gQOOH[O] (+ M)',
                   Tmin=180.0, Tmax=1500.0,
                   Pmin=(0.01, 'atm'), Pmax=(98.692, 'atm'),
                   coeffs=[[-9.07300e+00,  6.26900e-01, -1.49700e-01, -3.01000e-02, -2.75100e-03,  1.51400e-03,  9.12200e-04,  1.44600e-04],
                           [ 2.31600e+00,  2.50300e+00,  2.14600e-01, -5.32800e-02, -1.52900e-02,  1.75700e-03,  2.25400e-03,  3.88800e-05],
                           [-2.85100e+00,  1.95300e-01,  9.22600e-02,  6.42700e-02,  5.44400e-03, -3.91800e-03, -1.29700e-03, -9.14400e-05],
                           [-1.89000e+00, -4.19900e-01, -1.00000e-01,  4.05800e-02,  2.24900e-02,  2.24900e-03, -2.27900e-03, -1.02300e-03],
                           [-9.51500e-01, -2.49500e-01, -9.37600e-02, -8.39200e-03,  6.29700e-03,  4.36600e-03,  5.25600e-04, -4.79500e-04],
                           [-4.16900e-01, -5.04900e-02, -1.05900e-02, -1.14900e-02, -8.04300e-03, -2.65400e-04,  1.16100e-03,  4.94500e-04],
                           [-1.69200e-01, -2.65700e-03,  3.47400e-02,  5.46300e-03, -6.28400e-03, -2.81300e-03, -1.86200e-04,  4.28900e-04],
                           [-8.00900e-02, -2.16100e-02,  2.49000e-02,  1.48100e-02,  9.90300e-04, -1.50600e-03, -8.62600e-04, -8.83700e-05],
                           [-3.83900e-02, -4.93800e-02, -2.48400e-04,  9.98600e-03,  4.69100e-03,  6.57100e-04, -4.54100e-04, -2.70700e-04],
                           [-1.89800e-02, -4.59300e-02, -2.22200e-02,  7.57400e-04,  3.70500e-03,  1.50400e-03,  2.23000e-04, -1.13900e-04]])

# Reaction 9
chebyshev_reaction('O2 + gR (+ M) <=> gQOOH[O] (+ M)',
                   Tmin=180.0, Tmax=1500.0,
                   Pmin=(0.01, 'atm'), Pmax=(98.692, 'atm'),
                   coeffs=[[ 5.50900e+00,  1.21300e+00, -3.01700e-01, -1.08000e-01, -3.72800e-02,  2.27100e-02,  1.29400e-02, -1.62800e-03],
                           [-2.88400e+00,  7.04000e-01,  4.32000e-02,  1.19800e-01,  8.54300e-03, -2.72500e-02, -9.71900e-03,  4.02400e-03],
                           [-1.85700e+00,  2.20600e-01, -6.50100e-02,  2.95200e-02,  3.03900e-02,  4.30800e-04, -4.80200e-03, -2.57800e-03],
                           [-1.11000e+00,  6.68700e-02, -5.83100e-02, -3.08900e-02,  1.61600e-02,  8.88000e-03,  5.47500e-04, -2.00500e-03],
                           [-5.97700e-01,  6.74000e-02,  1.32700e-02, -3.53900e-02, -6.12000e-03,  3.61100e-03,  2.57600e-03,  5.61200e-04],
                           [-3.00300e-01,  4.76700e-02,  6.12400e-02, -9.62400e-03, -1.13900e-02, -2.20300e-03,  9.71300e-04,  1.00700e-03],
                           [-1.52700e-01, -3.76600e-03,  5.97600e-02,  1.47700e-02, -4.86000e-03, -3.69600e-03, -8.38800e-04,  3.60300e-04],
                           [-8.62400e-02, -5.57800e-02,  2.79600e-02,  2.08200e-02,  3.01100e-03, -1.72600e-03, -1.20800e-03, -2.50800e-04],
                           [-4.79800e-02, -7.71400e-02, -8.71100e-03,  1.27900e-02,  5.80000e-03,  8.38800e-04, -5.07000e-04, -4.28800e-04],
                           [-2.26100e-02, -6.47500e-02, -2.81100e-02,  4.51600e-04,  3.66000e-03,  1.63600e-03,  4.19400e-04, -1.22300e-04]])
#  gRO2(+M) <=> gQOOHa(+M)                             1.000e+00 0.000     0.000
#      TCHEB/ 180.000   1500.000 /
#      PCHEB/ 0.010     98.692   /
#      CHEB/ 10 8/
#      CHEB/ -1.861e+00   5.627e-01    -1.012e-02   7.277e-03    -3.321e-04  /
#      CHEB/ 5.711e-05    -2.061e-05   -1.992e-05   4.520e+00    9.115e-01   /
#      CHEB/ 1.547e-02    9.084e-03    3.292e-04    -5.747e-05   -3.825e-05  /
#      CHEB/ -4.115e-05   -2.259e+00   4.319e-01    7.497e-02    3.326e-03   /
#      CHEB/ 1.033e-03    -9.695e-05   -1.082e-04   -3.036e-05   -1.644e+00  /
#      CHEB/ -3.005e-03   8.700e-02    7.342e-03    4.480e-04    -1.924e-05  /
#      CHEB/ -1.640e-04   -2.839e-05   -1.012e+00   -2.076e-01   4.319e-02   /
#      CHEB/ 1.416e-02    4.916e-04    -1.363e-04   -1.366e-04   -2.927e-05  /
#      CHEB/ -5.115e-01   -2.051e-01   -9.198e-03   1.260e-02    1.737e-03   /
#      CHEB/ -2.214e-04   -8.787e-05   -9.676e-06   -1.920e-01   -1.185e-01  /
#      CHEB/ -3.103e-02   3.594e-03    2.186e-03    3.942e-05    -2.851e-05  /
#      CHEB/ 1.896e-05    -8.353e-02   -4.405e-02   -2.312e-02   -3.357e-03  /
#      CHEB/ 7.970e-04    3.450e-04    9.332e-05    3.532e-05    -1.216e-02  /
#      CHEB/ -1.127e-02   -8.082e-03   -3.256e-03   -7.817e-04   2.434e-04   /
#      CHEB/ 2.119e-04    4.070e-05    -1.388e-02   -7.183e-03   -2.288e-03  /
#      CHEB/ 5.513e-04    -6.557e-04   -9.610e-05   1.745e-04    3.350e-05   /
#  gQOOH[O](+M) <=> gQOOHa(+M)                         1.000e+00 0.000     0.000
#      TCHEB/ 180.000   1500.000 /
#      PCHEB/ 0.010     98.692   /
#      CHEB/ 10 8/
#      CHEB/ 3.736e-01    -9.740e-02   -1.930e-01   -5.984e-03   3.101e-03   /
#      CHEB/ 1.265e-03    1.951e-04    9.122e-07    -1.054e+00   1.866e+00   /
#      CHEB/ 9.027e-02    -3.359e-02   -9.482e-03   3.736e-03    1.536e-03   /
#      CHEB/ -3.012e-04   -3.230e+00   1.614e-01    1.596e-01    3.171e-02   /
#      CHEB/ -3.318e-03   -2.938e-03   1.106e-04    2.614e-04    -2.116e+00  /
#      CHEB/ -3.398e-01   1.855e-02    3.049e-02    1.270e-02    -2.137e-04  /
#      CHEB/ -1.818e-03   -3.814e-04   -1.069e+00   -2.940e-01   -3.803e-02  /
#      CHEB/ 1.188e-03    7.311e-03    3.579e-03    -3.208e-04   -6.703e-04  /
#      CHEB/ -4.495e-01   -1.429e-01   -2.397e-02   -5.943e-03   -2.610e-03  /
#      CHEB/ 1.175e-03    9.284e-04    4.298e-05    -1.521e-01   -4.117e-02  /
#      CHEB/ -1.502e-03   2.005e-03    -3.771e-03   -1.896e-03   2.523e-04   /
#      CHEB/ 4.296e-04    -4.652e-02   -8.952e-03   6.219e-03    7.561e-03   /
#      CHEB/ 5.834e-05    -1.791e-03   -5.626e-04   1.608e-04    -1.678e-02  /
#      CHEB/ -1.672e-02   1.183e-03    6.553e-03    2.375e-03    -8.481e-05  /