units(length='cm', time='s', quantity='mol', act_energy='kcal/mol')

ideal_gas(name='gas',
          elements="H D T C Ci O Oi N Ne Ar He Si S F Cl Br I X",
          species="""aOOHbalkene      OH               ibutanal
                     aR               performic_acid   disub_c4ether
                     aQOOHb           H                aadduct
                     trisub_epoxy     ibutenol         aQOOH[O]
                     ipropyl          aRO2             O2
                     formic_acid      propene          aQOOHg
                     ibut_peroxyacid  HO2              CH3""",
          reactions='all',
          initial_state=state(temperature=300.0, pressure=OneAtm))

#-------------------------------------------------------------------------------
# Element data
#-------------------------------------------------------------------------------

element(symbol='Ci', atomic_mass=13.003)
element(symbol='D', atomic_mass=2.014)
element(symbol='Oi', atomic_mass=18.0)
element(symbol='T', atomic_mass=3.016)
element(symbol='X', atomic_mass=195.083)
#-------------------------------------------------------------------------------
# Species data
#-------------------------------------------------------------------------------

species(name='aOOHbalkene',
        atoms='C:3 H:6 O:3',
        thermo=(NASA([10.00, 497.41],
                     [ 3.76691735E+00,  1.51417956E-02,  1.85499431E-04,
                      -4.61303214E-07,  3.27678941E-10, -3.08363453E+04,
                       1.09903968E+01]),
                NASA([497.41, 3000.00],
                     [ 6.20882781E+00,  4.08866173E-02, -2.89934946E-05,
                       9.60428979E-09, -1.19355432E-12, -3.16406746E+04,
                      -4.72842811E+00])))

species(name='OH',
        atoms='H:1 O:1',
        thermo=(NASA([10.00, 984.14],
                     [ 3.49686242E+00,  1.83973160E-04, -9.97634499E-07,
                       1.56942783E-09, -6.10128175E-13,  3.41673934E+03,
                       1.48093120E+00]),
                NASA([984.14, 3000.00],
                     [ 3.45221464E+00, -2.95124034E-04,  7.39418622E-07,
                      -2.89309866E-10,  3.53041498E-14,  3.45751599E+03,
                       1.85813897E+00])))

species(name='ibutanal',
        atoms='C:4 H:8 O:1',
        thermo=(NASA([10.00, 683.88],
                     [ 3.57157346E+00,  3.36936906E-02, -1.78475021E-05,
                       1.31946716E-08, -7.58008388E-12, -2.60901189E+04,
                       1.05595084E+01]),
                NASA([683.88, 3000.00],
                     [ 1.29043622E+00,  4.14804229E-02, -2.27411206E-05,
                       6.08619500E-09, -6.38995128E-13, -2.56481998E+04,
                       2.16477430E+01])))

species(name='aR',
        atoms='C:4 H:9 O:1',
        thermo=(NASA([10.00, 455.22],
                     [ 3.59625500E+00,  3.38947981E-02,  7.37257079E-06,
                      -3.99275335E-08,  2.49019944E-11, -1.38576475E+04,
                       1.18269265E+01]),
                NASA([455.22, 3000.00],
                     [ 2.49586309E+00,  4.35639890E-02, -2.44887770E-05,
                       6.73363769E-09, -7.23862433E-13, -1.37574644E+04,
                       1.62696907E+01])))

species(name='performic_acid',
        atoms='C:1 H:2 O:3',
        thermo=(NASA([10.00, 590.95],
                     [ 3.92633851E+00,  4.24517168E-03,  6.71106764E-05,
                      -1.36545385E-07,  8.03337864E-11, -3.63028176E+04,
                       8.06485813E+00]),
                NASA([590.95, 3000.00],
                     [ 4.39992934E+00,  1.85411415E-02, -1.36005501E-05,
                       4.62292431E-09, -5.88463603E-13, -3.66643888E+04,
                       3.44353230E+00])))

species(name='disub_c4ether',
        atoms='C:4 H:8 O:2',
        thermo=(NASA([10.00, 413.50],
                     [ 3.78241323E+00,  1.89501763E-02,  8.65302396E-05,
                      -1.80580575E-07,  1.13656264E-10, -4.09373839E+04,
                       1.09982450E+01]),
                NASA([413.50, 3000.00],
                     [ 4.29420885E-01,  5.13851903E-02, -3.11292293E-05,
                       9.11498284E-09, -1.03192718E-12, -4.06600896E+04,
                       2.42134976E+01])))

species(name='aQOOHb',
        atoms='C:4 H:9 O:3',
        thermo=(NASA([10.00, 412.78],
                     [ 3.15498836E+00,  8.55068303E-02, -2.35307993E-04,
                       4.71983261E-07, -3.62709267E-10, -2.76372520E+04,
                       1.52522123E+01]),
                NASA([412.78, 3000.00],
                     [ 4.18099845E+00,  5.26168288E-02, -3.23998410E-05,
                       9.59389339E-09, -1.09464519E-12, -2.75264571E+04,
                       1.35782328E+01])))

species(name='H',
        atoms='H:1',
        thermo=(NASA([10.00, 794.01],
                     [ 2.50000000E+00,  1.99051163E-15, -1.19089508E-17,
                       2.10805655E-20, -1.11017699E-23,  2.54725594E+04,
                      -4.61279342E-01]),
                NASA([794.01, 3000.00],
                     [ 2.50000000E+00,  1.52667235E-14, -1.58445285E-17,
                       6.63088600E-21, -9.62111674E-25,  2.54725594E+04,
                      -4.61279342E-01])))

species(name='aadduct',
        atoms='C:4 H:9 O:3',
        thermo=(NASA([10.00, 449.84],
                     [ 3.06901904E+00,  9.20724491E-02, -2.68085092E-04,
                       5.15249897E-07, -3.68046586E-10, -2.84696935E+04,
                       1.46591735E+01]),
                NASA([449.84, 3000.00],
                     [ 4.11210745E+00,  5.16955724E-02, -2.97401041E-05,
                       8.32758939E-09, -9.08861448E-13, -2.82488525E+04,
                       1.39578825E+01])))

species(name='trisub_epoxy',
        atoms='C:4 H:8 O:2',
        thermo=(NASA([10.00, 209.19],
                     [ 3.75295042E+00,  2.37546930E-02,  1.26610110E-04,
                      -4.78364365E-07,  5.79468168E-10, -4.06218504E+04,
                       1.12739684E+01]),
                NASA([209.19, 3000.00],
                     [ 2.64185254E+00,  4.50006531E-02, -2.57361066E-05,
                       7.15266054E-09, -7.72980731E-13, -4.05753648E+04,
                       1.48960343E+01])))

species(name='ibutenol',
        atoms='C:4 H:8 O:1',
        thermo=(NASA([10.00, 135.97],
                     [ 3.95714996E+00,  5.72646980E-03,  4.63611760E-04,
                      -3.04137514E-06,  6.85019471E-09, -2.32796058E+04,
                       8.21931848E+00]),
                NASA([135.97, 3000.00],
                     [ 3.32467612E+00,  3.69033556E-02, -1.89960416E-05,
                       4.73417677E-09, -4.59705291E-13, -2.32740272E+04,
                       9.58133237E+00])))

species(name='aQOOH[O]',
        atoms='C:4 H:9 O:3',
        thermo=(NASA([10.00, 488.36],
                     [ 3.54559533E+00,  3.89536133E-02,  8.47689703E-05,
                      -2.45147486E-07,  1.76157259E-10, -2.44579639E+04,
                       1.34685910E+01]),
                NASA([488.36, 3000.00],
                     [ 3.94214913E+00,  5.71928314E-02, -3.72516212E-05,
                       1.15209013E-08, -1.35808341E-12, -2.47529248E+04,
                       9.21628964E+00])))

species(name='ipropyl',
        atoms='C:3 H:7',
        thermo=(NASA([10.00, 421.76],
                     [ 3.73943775E+00,  3.10070157E-02, -1.51196908E-04,
                       4.35367329E-07, -3.85565052E-10,  9.49213457E+03,
                       7.79448918E+00]),
                NASA([421.76, 3000.00],
                     [-4.74526725E-01,  3.20862468E-02, -1.67340747E-05,
                       4.21365136E-09, -4.13155573E-13,  1.01934458E+04,
                       2.85865912E+01])))

species(name='aRO2',
        atoms='C:4 H:9 O:3',
        thermo=(NASA([10.00, 670.36],
                     [ 3.45405325E+00,  4.74751311E-02,  9.77507759E-06,
                      -6.31019603E-08,  3.75500067E-11, -3.24644783E+04,
                       1.39284976E+01]),
                NASA([670.36, 3000.00],
                     [ 5.04137652E+00,  5.19952978E-02, -3.16472789E-05,
                       9.22798587E-09, -1.03598915E-12, -3.29916709E+04,
                       4.56056770E+00])))

species(name='O2',
        atoms='O:2',
        thermo=(NASA([10.00, 605.96],
                     [ 3.50743498E+00, -4.43860349E-04,  1.45938058E-06,
                       1.61509333E-09, -2.32050052E-12, -9.24756224E+02,
                       4.72183634E+00]),
                NASA([605.96, 3000.00],
                     [ 2.87462882E+00,  2.17840991E-03, -1.18262921E-06,
                       2.86910493E-10, -2.53297146E-14, -8.19517838E+02,
                       7.69331810E+00])))

species(name='formic_acid',
        atoms='C:1 H:2 O:2',
        thermo=(NASA([10.00, 741.38],
                     [ 4.06855785E+00, -4.74562133E-03,  4.71797900E-05,
                      -6.07490052E-08,  2.51286794E-11, -4.66880837E+04,
                       6.53681035E+00]),
                NASA([741.38, 3000.00],
                     [ 1.13645847E+00,  1.74953124E-02, -1.08112403E-05,
                       3.08075326E-09, -3.34892658E-13, -4.64297918E+04,
                       1.86149484E+01])))

species(name='propene',
        atoms='C:3 H:6',
        thermo=(NASA([10.00, 519.53],
                     [ 3.98723879E+00,  4.72040503E-04,  6.51776229E-05,
                      -9.89891002E-08,  4.91141123E-11,  3.01844914E+03,
                       6.98071210E+00]),
                NASA([519.53, 3000.00],
                     [ 3.79893331E-01,  2.82457690E-02, -1.50108430E-05,
                       3.90894069E-09, -4.00521928E-13,  3.39327649E+03,
                       2.20218922E+01])))

species(name='aQOOHg',
        atoms='C:4 H:9 O:3',
        thermo=(NASA([10.00, 455.48],
                     [ 3.62522127E+00,  2.83222320E-02,  2.08527447E-04,
                      -5.67427418E-07,  4.35169138E-10, -2.47842612E+04,
                       1.26617758E+01]),
                NASA([455.48, 3000.00],
                     [ 5.13914202E+00,  5.96270859E-02, -4.14435328E-05,
                       1.34202375E-08, -1.63474553E-12, -2.53848176E+04,
                       1.46991116E+00])))

species(name='ibut_peroxyacid',
        atoms='C:4 H:8 O:3',
        thermo=(NASA([10.00, 1386.21],
                     [ 3.50995385E+00,  4.78670384E-02, -2.40781384E-05,
                       3.71046938E-09,  3.85442115E-13, -4.90910533E+04,
                       1.22017268E+01]),
                NASA([1386.21, 3000.00],
                     [ 1.24543146E+01,  3.02396862E-02, -1.38577031E-05,
                       3.05328904E-09, -2.63982457E-13, -5.23569366E+04,
                      -3.67061828E+01])))

species(name='HO2',
        atoms='H:1 O:2',
        thermo=(NASA([10.00, 891.11],
                     [ 4.02887004E+00, -1.75769289E-03,  1.08726004E-05,
                      -1.13812972E-08,  3.90113097E-12,  4.95165001E+02,
                       4.69302008E+00]),
                NASA([891.11, 3000.00],
                     [ 3.06571044E+00,  4.28505005E-03, -2.19325920E-06,
                       5.58882699E-10, -5.61246669E-14,  5.98557610E+02,
                       8.84564156E+00])))

species(name='CH3',
        atoms='C:1 H:3',
        thermo=(NASA([10.00, 616.77],
                     [ 3.98929952E+00,  5.45150461E-04,  9.01320092E-06,
                      -1.08320497E-08,  4.38985879E-12,  1.65859883E+04,
                       2.22446886E-01]),
                NASA([616.77, 3000.00],
                     [ 3.35928237E+00,  4.63117126E-03, -9.24365433E-07,
                      -9.02514624E-11,  3.56905106E-14,  1.66637014E+04,
                       2.95743732E+00])))

#-------------------------------------------------------------------------------
# Reaction data
#-------------------------------------------------------------------------------

# Reaction 1
chebyshev_reaction('aQOOH[O] (+ M) <=> aQOOHb (+ M)',
                   Tmin=180.0, Tmax=1500.0,
                   Pmin=(0.01, 'atm'), Pmax=(98.692, 'atm'),
                   coeffs=[[-5.84900e+00,  2.26900e+00, -6.22700e-02,  2.16300e-02, -1.35300e-02, -4.11000e-03, -8.27700e-04,  8.66200e-04],
                           [-3.15900e+00,  1.72700e+00,  4.51100e-01,  5.84100e-02, -2.74700e-02, -1.35500e-02,  3.09200e-03,  2.05100e-03],
                           [-3.03200e+00,  2.53800e-01,  6.26700e-02,  1.34100e-02,  5.19900e-03, -4.15900e-04, -5.79000e-04,  1.56200e-04],
                           [-1.65600e+00, -1.76300e-01, -9.97400e-02, -9.07700e-04,  1.47300e-02,  5.95400e-03,  8.55400e-04, -7.00300e-04],
                           [-8.03000e-01, -2.18600e-01, -1.36500e-01, -1.29400e-02,  1.11000e-02,  6.21100e-03,  1.15500e-03, -4.69800e-04],
                           [-3.38700e-01, -7.92600e-02, -9.30200e-02, -2.46200e-02,  3.61300e-03,  2.72000e-03,  5.71800e-04, -1.97100e-04],
                           [-6.79000e-02,  8.25000e-03, -3.10900e-02, -1.70800e-02, -2.06900e-03, -5.97800e-04, -5.19100e-04,  1.34300e-04],
                           [ 1.20100e-02,  5.40900e-02,  1.12200e-02, -1.11800e-03, -6.00100e-03, -1.92500e-03, -4.31100e-04,  8.46000e-05],
                           [-5.10800e-04,  5.38800e-02,  2.55900e-02,  4.59400e-03,  3.86100e-05, -2.75300e-03, -6.60800e-04,  2.07700e-04],
                           [-3.75000e-03,  5.17000e-03,  1.42800e-02,  1.14900e-02,  6.18100e-04, -5.54100e-04, -5.41700e-04, -3.64000e-05]])

# Reaction 2
chebyshev_reaction('aQOOHg (+ M) <=> aQOOHb (+ M)',
                   Tmin=180.0, Tmax=1500.0,
                   Pmin=(0.01, 'atm'), Pmax=(98.692, 'atm'),
                   coeffs=[[-7.01400e+00,  2.20800e+00, -2.89300e-01, -9.60600e-02,  8.33800e-03,  7.30800e-03,  1.04000e-03, -7.95100e-04],
                           [-3.47800e+00,  3.01400e+00,  3.40700e-01, -6.88100e-02, -2.03900e-02,  4.44800e-03,  1.17800e-03, -2.90200e-04],
                           [-3.92900e+00, -2.76800e-01,  1.79300e-01,  1.07600e-01, -7.94600e-03, -4.19600e-03, -2.00200e-04, -2.26600e-04],
                           [-2.12500e+00, -7.88900e-01, -1.50400e-01,  8.74700e-02,  2.51900e-02, -6.34100e-03, -2.67000e-03,  8.40200e-04],
                           [-7.77600e-01, -3.53700e-01, -1.80500e-01, -7.70200e-03,  2.27000e-02,  3.80500e-03, -2.79100e-03, -3.94200e-04],
                           [-2.09000e-01, -2.52000e-02, -4.95900e-02, -3.78800e-02, -4.88300e-03,  5.72400e-03,  1.98500e-03, -6.98000e-04],
                           [-3.14400e-02,  4.56400e-02,  1.68200e-02, -1.14300e-02, -1.06800e-02, -1.36600e-03,  2.29800e-03,  5.69800e-04],
                           [-2.27500e-02,  3.63500e-02,  2.56500e-02,  1.62800e-03, -2.24900e-03, -2.85700e-03, -5.48400e-04,  6.24400e-04],
                           [-1.47500e-02,  1.51600e-02,  6.56600e-03,  1.91200e-03,  2.62000e-03, -1.16900e-04, -1.23600e-03, -3.70900e-04],
                           [-7.41000e-03,  3.56800e-03,  8.08900e-03, -5.35800e-04, -5.24300e-04,  6.33400e-04,  1.67000e-04, -2.99200e-04]])

# Reaction 3
chebyshev_reaction('aRO2 (+ M) <=> aQOOHb (+ M)',
                   Tmin=180.0, Tmax=1500.0,
                   Pmin=(0.01, 'atm'), Pmax=(98.692, 'atm'),
                   coeffs=[[-9.21100e+00,  1.71300e+00,  1.28700e-01,  1.07300e-03, -1.59500e-02, -3.82100e-03,  1.32200e-04,  7.42300e-04],
                           [ 3.25800e+00,  2.01900e+00,  3.67900e-01, -9.35300e-03, -1.64200e-02, -7.03400e-03,  1.43700e-04,  1.10800e-03],
                           [-3.14200e+00,  5.17500e-01,  1.02000e-01,  2.59600e-02,  9.68800e-03, -7.75400e-04, -1.00500e-03,  7.17100e-05],
                           [-1.89100e+00, -2.21700e-01, -1.15600e-01,  4.64200e-03,  2.26900e-02,  5.88300e-03, -2.80200e-04, -6.71300e-04],
                           [-9.07400e-01, -2.88200e-01, -1.55200e-01, -2.26800e-02,  1.49500e-02,  5.73400e-03,  7.16200e-04, -4.25700e-04],
                           [-3.48100e-01, -7.81600e-02, -1.08900e-01, -2.33800e-02,  2.60100e-03,  1.95600e-03,  4.47300e-04, -5.39100e-05],
                           [-6.54700e-02,  5.23100e-02, -3.60600e-02, -1.30700e-02, -3.46000e-03, -1.26000e-03, -7.91800e-05,  1.00800e-04],
                           [ 2.01200e-02,  6.99000e-02,  1.37000e-02, -1.07100e-03, -3.99700e-03, -2.70200e-03, -2.70800e-04,  1.98200e-04],
                           [ 6.81200e-03,  4.82700e-02,  2.24300e-02,  8.71900e-03, -1.34400e-03, -2.50500e-03, -4.36800e-04,  1.93600e-04],
                           [-1.82400e-02,  1.40600e-02,  1.15300e-02,  1.06800e-02,  1.64200e-03, -1.09000e-03, -4.05400e-04,  2.68800e-05]])

# Reaction 4
chebyshev_reaction('aadduct (+ M) <=> aQOOHb (+ M)',
                   Tmin=180.0, Tmax=1500.0,
                   Pmin=(0.01, 'atm'), Pmax=(98.692, 'atm'),
                   coeffs=[[-1.09900e+01,  2.03500e+00,  3.26000e-01,  7.61600e-02,  1.67300e-04, -7.35700e-03, -5.64700e-03, -2.27600e-03],
                           [-2.34700e+00,  1.62200e+00,  1.42100e-01, -1.09200e-01, -3.58600e-02, -1.29900e-03,  6.88100e-03,  5.32900e-03],
                           [-3.47300e+00,  5.03600e-01,  1.02200e-01,  1.58600e-02,  5.75600e-03, -3.40600e-03, -3.75900e-03, -1.08500e-03],
                           [-1.95900e+00, -1.98600e-01, -9.17900e-02,  9.33500e-03,  2.65900e-02,  7.63200e-03, -4.61300e-04, -7.02800e-04],
                           [-7.29800e-01, -2.77000e-01, -1.42000e-01, -2.29700e-02,  1.60100e-02,  6.24300e-03,  4.16200e-04, -2.26000e-04],
                           [-1.73100e-01, -8.57600e-02, -1.10600e-01, -2.97200e-02,  1.79800e-03,  2.63500e-03,  7.95200e-04,  3.80900e-04],
                           [-2.87700e-01,  5.27600e-02, -2.92100e-02, -1.11300e-02, -1.38200e-03, -1.31800e-03, -1.20300e-03, -4.16700e-04],
                           [ 2.89700e-02,  5.86700e-02,  8.20300e-03, -5.84200e-03, -4.08500e-03, -1.86200e-03,  2.35500e-04,  5.55800e-04],
                           [ 6.46600e-02,  5.48700e-02,  2.72600e-02,  8.89700e-03, -1.16000e-03, -2.89900e-03, -8.94900e-04,  1.09500e-04],
                           [ 5.71200e-03,  1.88300e-02,  1.40200e-02,  1.01800e-02,  1.69600e-03, -1.10600e-03, -3.87600e-04,  1.38100e-04]])

# Reaction 5
chebyshev_reaction('O2 + aR (+ M) <=> aQOOHb (+ M)',
                   Tmin=180.0, Tmax=1500.0,
                   Pmin=(0.01, 'atm'), Pmax=(98.692, 'atm'),
                   coeffs=[[ 1.44800e+00,  5.09800e+00, -1.06700e+00, -1.98200e-01,  1.17100e-01, -4.06400e-04, -2.08200e-02,  5.08500e-03],
                           [-1.23900e+00, -9.79400e-01,  1.49000e+00, -4.06200e-02, -1.89200e-01,  2.83500e-02,  2.81000e-02, -9.98700e-03],
                           [-1.33300e+00, -3.60500e-01,  2.17100e-01,  1.81400e-01, -2.53200e-02, -3.56100e-02,  5.64100e-03,  6.27100e-03],
                           [-8.86600e-01, -4.16300e-01, -3.99600e-02,  9.63800e-02,  2.33000e-02, -1.34400e-02, -6.22100e-03,  2.37800e-03],
                           [-4.45900e-01, -2.56900e-01, -1.02400e-01,  2.21700e-02,  2.33300e-02,  1.04300e-03, -4.06900e-03, -4.08600e-04],
                           [-1.73200e-01, -8.37800e-02, -7.27000e-02, -1.25900e-02,  1.06700e-02,  3.48000e-03, -7.90500e-04, -6.71900e-04],
                           [ 7.35800e-03,  7.28900e-03, -3.65500e-02, -2.04700e-02, -3.69400e-04,  2.46700e-03,  7.83300e-04, -1.38700e-04],
                           [ 4.90000e-03,  5.29800e-02,  6.72000e-03, -7.79200e-03, -4.07600e-03, -3.49500e-04,  1.69700e-04,  1.02900e-04],
                           [ 8.90700e-03,  3.63000e-02,  1.34200e-02,  2.27900e-03, -2.37400e-03, -9.61300e-04, -1.89400e-04,  7.60600e-05],
                           [-1.56100e-02,  1.23300e-02,  1.17100e-02,  6.16300e-03,  1.12400e-03, -7.84800e-04, -5.34100e-04, -8.10700e-05]])
#  aQOOHb(+M) <=> aQOOH[O](+M)                         1.000e+00 0.000     0.000
#      TCHEB/ 180.000   1500.000 /
#      PCHEB/ 0.010     98.692   /
#      CHEB/ 10 8/
#      CHEB/ -1.164e+01   2.269e+00    -6.227e-02   2.163e-02    -1.353e-02  /
#      CHEB/ -4.110e-03   -8.277e-04   8.662e-04    3.778e-02    1.727e+00   /
#      CHEB/ 4.511e-01    5.841e-02    -2.747e-02   -1.355e-02   3.092e-03   /
#      CHEB/ 2.051e-03    -2.954e+00   2.538e-01    6.267e-02    1.341e-02   /
#      CHEB/ 5.199e-03    -4.159e-04   -5.790e-04   1.562e-04    -1.610e+00  /
#      CHEB/ -1.763e-01   -9.974e-02   -9.077e-04   1.473e-02    5.954e-03   /
#      CHEB/ 8.554e-04    -7.003e-04   -7.877e-01   -2.186e-01   -1.365e-01  /
#      CHEB/ -1.294e-02   1.110e-02    6.211e-03    1.155e-03    -4.698e-04  /
#      CHEB/ -3.339e-01   -7.926e-02   -9.302e-02   -2.462e-02   3.613e-03   /
#      CHEB/ 2.720e-03    5.718e-04    -1.971e-04   -6.609e-02   8.250e-03   /
#      CHEB/ -3.109e-02   -1.708e-02   -2.069e-03   -5.978e-04   -5.191e-04  /
#      CHEB/ 1.343e-04    1.272e-02    5.409e-02    1.122e-02    -1.118e-03  /
#      CHEB/ -6.001e-03   -1.925e-03   -4.311e-04   8.460e-05    -3.162e-04  /
#      CHEB/ 5.388e-02    2.559e-02    4.594e-03    3.861e-05    -2.753e-03  /
#      CHEB/ -6.608e-04   2.077e-04    -3.743e-03   5.170e-03    1.428e-02   /
#      CHEB/ 1.149e-02    6.181e-04    -5.541e-04   -5.417e-04   -3.640e-05  /

# Reaction 6
chebyshev_reaction('aQOOHg (+ M) <=> aQOOH[O] (+ M)',
                   Tmin=180.0, Tmax=1500.0,
                   Pmin=(0.01, 'atm'), Pmax=(98.692, 'atm'),
                   coeffs=[[-4.17700e+00,  2.20200e+00, -2.14800e-01,  1.67400e-02, -1.28800e-02,  2.73400e-03,  4.79100e-04, -2.81300e-04],
                           [-4.72500e+00,  9.24400e-01,  3.00400e-01,  1.95900e-02, -6.80600e-03, -6.44200e-03,  1.96300e-03,  8.79700e-04],
                           [-3.78300e+00, -4.30500e-01, -4.86900e-02,  3.09300e-02,  1.09600e-02,  2.02400e-04, -2.02200e-03, -3.04400e-04],
                           [-1.64900e+00, -3.39800e-01, -1.88700e-01,  1.92300e-03,  1.70400e-02,  2.19600e-03, -3.38900e-04, -5.12000e-04],
                           [-5.97300e-01, -3.70100e-02, -1.18800e-01, -3.44000e-02,  2.14200e-03,  4.37400e-03,  9.74800e-04, -5.75300e-05],
                           [-2.29200e-01,  9.66200e-02,  6.25500e-03, -2.67000e-02, -1.22200e-02, -7.74700e-04,  1.97100e-03,  4.77200e-04],
                           [-9.59600e-02,  4.84900e-02,  3.68900e-02,  1.01000e-02, -6.77400e-03, -5.24800e-03, -2.39300e-04,  7.90300e-04],
                           [-6.45500e-02,  5.15100e-03,  8.47400e-03,  1.85500e-02,  3.19100e-03, -1.97300e-03, -1.84600e-03, -1.16200e-04],
                           [-3.63900e-02, -6.27800e-03, -5.20600e-03, -2.98500e-03,  8.71100e-03,  1.60300e-03, -9.49400e-04, -6.56000e-04],
                           [ 4.76800e-04, -4.67400e-03, -7.93000e-03, -2.08900e-03, -2.14800e-03,  2.46300e-03,  1.09500e-03, -3.50400e-04]])

# Reaction 7
chebyshev_reaction('aRO2 (+ M) <=> aQOOH[O] (+ M)',
                   Tmin=180.0, Tmax=1500.0,
                   Pmin=(0.01, 'atm'), Pmax=(98.692, 'atm'),
                   coeffs=[[-6.45600e+00,  3.46400e+00, -6.37000e-01,  2.81000e-02,  4.52300e-02, -1.52300e-02, -2.34900e-03,  3.14800e-03],
                           [ 4.84500e+00, -3.05100e-01,  4.19900e-01, -6.50600e-03, -4.17700e-02,  1.27400e-02,  3.04600e-03, -2.71400e-03],
                           [-3.16300e+00, -1.25400e-01, -2.46900e-03, -6.59000e-03,  1.79100e-03,  2.67100e-03, -1.79100e-03,  4.57100e-05],
                           [-1.54800e+00, -1.17100e-01, -3.74800e-02, -4.41300e-03,  2.75400e-03, -8.83200e-04,  4.04600e-04, -3.21400e-05],
                           [-6.99300e-01, -6.76700e-02, -3.85600e-02,  3.33900e-03, -1.29300e-03, -1.15600e-03,  1.36300e-03, -3.09900e-04],
                           [-3.17500e-01,  1.36900e-03, -6.24800e-03, -1.35100e-02,  1.57600e-03,  1.09900e-04, -3.19500e-04,  2.46500e-04],
                           [-9.62100e-02, -4.54600e-03,  7.69800e-03, -4.02100e-03, -2.19700e-03,  1.04400e-03, -7.98100e-04,  9.59900e-05],
                           [-3.72500e-02,  3.48500e-02, -3.84800e-03,  6.71900e-03, -3.56800e-03,  2.04500e-04,  4.75000e-04, -4.66900e-04],
                           [-1.99600e-02,  1.50300e-02,  1.75300e-02, -6.56000e-03,  4.54100e-03, -9.25500e-04, -6.34800e-04,  5.49400e-04],
                           [-7.47100e-03,  8.50300e-03, -7.54500e-03,  9.71200e-03, -1.88500e-03, -1.90800e-04,  8.37200e-04, -4.23300e-04]])

# Reaction 8
chebyshev_reaction('aadduct (+ M) <=> aQOOH[O] (+ M)',
                   Tmin=180.0, Tmax=1500.0,
                   Pmin=(0.01, 'atm'), Pmax=(98.692, 'atm'),
                   coeffs=[[-8.23100e+00,  3.79700e+00, -4.36200e-01,  1.12500e-01,  6.52400e-02, -1.67700e-02, -6.70700e-03,  4.47100e-04],
                           [-7.60900e-01, -7.16700e-01,  1.71900e-01, -1.10700e-01, -6.89700e-02,  1.34300e-02,  8.44100e-03,  1.00900e-03],
                           [-3.48400e+00, -1.33100e-01, -5.20600e-03, -7.43200e-03, -3.20600e-04,  5.69000e-04, -3.46400e-03, -1.02800e-03],
                           [-1.61000e+00, -9.52600e-02, -2.07400e-02,  4.69700e-03,  5.85600e-03,  9.63700e-05,  7.43900e-04,  3.24900e-05],
                           [-5.15200e-01, -5.86300e-02, -3.09700e-02,  6.47200e-03, -1.23300e-03, -1.58700e-03,  1.20700e-03, -2.71100e-04],
                           [-1.37000e-01, -9.80200e-03, -1.26400e-02, -1.75300e-02, -1.71700e-04,  1.38700e-04,  3.02400e-04,  6.96100e-04],
                           [-3.12400e-01, -5.44000e-03,  1.31000e-02,  9.89900e-04, -1.17500e-04,  8.54300e-04, -1.66800e-03, -5.14800e-04],
                           [-2.43600e-02,  2.01900e-02, -1.16500e-02,  3.13500e-03, -4.30100e-03,  7.55500e-04,  1.17100e-03, -8.11200e-05],
                           [ 4.16500e-02,  1.97300e-02,  2.16800e-02, -5.03400e-03,  4.48800e-03, -1.42800e-03, -1.02600e-03,  3.68200e-04],
                           [ 1.89600e-02,  1.10600e-02, -5.88400e-03,  9.78900e-03, -2.19900e-03, -2.86800e-04,  9.26000e-04, -3.31600e-04]])

# Reaction 9
chebyshev_reaction('O2 + aR (+ M) <=> aQOOH[O] (+ M)',
                   Tmin=180.0, Tmax=1500.0,
                   Pmin=(0.01, 'atm'), Pmax=(98.692, 'atm'),
                   coeffs=[[-3.25200e+00,  8.19200e+00, -5.91600e-02,  3.99600e-02, -1.53600e-01, -2.27200e-01,  3.09000e-02,  1.22200e-01],
                           [-1.24000e+00, -2.87400e+00,  8.46700e-01, -2.35400e-01,  1.35700e-01,  2.46600e-01, -5.95100e-02, -1.39300e-01],
                           [-7.40100e-01, -1.01900e+00,  3.81000e-02,  1.38900e-01, -5.61300e-02,  1.14900e-02,  3.63300e-02, -2.71000e-03],
                           [-4.83900e-01, -3.18000e-01, -1.97800e-01,  1.29100e-01,  1.06800e-02, -5.01000e-02,  8.20500e-03,  2.38500e-02],
                           [-3.35600e-01, -1.97300e-02, -1.64000e-01,  6.55200e-04,  6.28600e-02, -1.86400e-02, -2.00800e-02,  7.14100e-03],
                           [-2.63600e-01,  2.20500e-03,  2.29000e-02, -4.15600e-02,  3.43700e-02,  6.36100e-03, -2.75100e-02, -6.10000e-03],
                           [-6.49600e-03,  3.60700e-03,  3.50700e-02, -7.48500e-02, -4.45900e-02,  3.72600e-02,  2.55800e-02, -3.78600e-03],
                           [-4.20600e-02, -1.85800e-02,  2.92000e-02,  3.98700e-02, -2.11300e-02, -5.89100e-03, -1.99700e-03, -2.63900e-03],
                           [ 8.36100e-03,  2.13800e-02, -2.71400e-02,  1.28500e-02, -1.14400e-03, -4.69800e-03,  8.30500e-03, -1.12600e-03],
                           [-1.51400e-02,  7.34100e-03, -7.59600e-03,  7.79600e-03,  1.65900e-02, -1.06500e-02, -3.98000e-03,  2.81100e-03]])
#  aQOOHb(+M) <=> aQOOHg(+M)                           1.000e+00 0.000     0.000
#      TCHEB/ 180.000   1500.000 /
#      PCHEB/ 0.010     98.692   /
#      CHEB/ 10 8/
#      CHEB/ -1.256e+01   2.208e+00    -2.893e-01   -9.606e-02   8.338e-03   /
#      CHEB/ 7.308e-03    1.040e-03    -7.951e-04   -3.234e-01   3.014e+00   /
#      CHEB/ 3.407e-01    -6.881e-02   -2.039e-02   4.448e-03    1.178e-03   /
#      CHEB/ -2.902e-04   -3.706e+00   -2.768e-01   1.793e-01    1.076e-01   /
#      CHEB/ -7.946e-03   -4.196e-03   -2.002e-04   -2.266e-04   -2.031e+00  /
#      CHEB/ -7.889e-01   -1.504e-01   8.747e-02    2.519e-02    -6.341e-03  /
#      CHEB/ -2.670e-03   8.402e-04    -7.494e-01   -3.537e-01   -1.805e-01  /
#      CHEB/ -7.702e-03   2.270e-02    3.805e-03    -2.791e-03   -3.942e-04  /
#      CHEB/ -2.012e-01   -2.520e-02   -4.959e-02   -3.788e-02   -4.883e-03  /
#      CHEB/ 5.724e-03    1.985e-03    -6.980e-04   -2.893e-02   4.564e-02   /
#      CHEB/ 1.682e-02    -1.143e-02   -1.068e-02   -1.366e-03   2.298e-03   /
#      CHEB/ 5.698e-04    -2.202e-02   3.635e-02    2.565e-02    1.628e-03   /
#      CHEB/ -2.249e-03   -2.857e-03   -5.484e-04   6.244e-04    -1.473e-02  /
#      CHEB/ 1.516e-02    6.566e-03    1.912e-03    2.620e-03    -1.169e-04  /
#      CHEB/ -1.236e-03   -3.709e-04   -7.552e-03   3.568e-03    8.089e-03   /
#      CHEB/ -5.358e-04   -5.243e-04   6.334e-04    1.670e-04    -2.992e-04  /
#  aQOOH[O](+M) <=> aQOOHg(+M)                         1.000e+00 0.000     0.000
#      TCHEB/ 180.000   1500.000 /
#      PCHEB/ 0.010     98.692   /
#      CHEB/ 10 8/
#      CHEB/ -3.932e+00   2.202e+00    -2.148e-01   1.674e-02    -1.288e-02  /
#      CHEB/ 2.734e-03    4.791e-04    -2.813e-04   -4.767e+00   9.244e-01   /
#      CHEB/ 3.004e-01    1.959e-02    -6.806e-03   -6.442e-03   1.963e-03   /
#      CHEB/ 8.797e-04    -3.638e+00   -4.305e-01   -4.869e-02   3.093e-02   /
#      CHEB/ 1.096e-02    2.024e-04    -2.022e-03   -3.044e-04   -1.600e+00  /
#      CHEB/ -3.398e-01   -1.887e-01   1.923e-03    1.704e-02    2.196e-03   /
#      CHEB/ -3.389e-04   -5.120e-04   -5.845e-01   -3.701e-02   -1.188e-01  /
#      CHEB/ -3.440e-02   2.142e-03    4.374e-03    9.748e-04    -5.753e-05  /