units(length='cm', time='s', quantity='mol', act_energy='kcal/mol')

ideal_gas(name='gas',
          elements="H D T C Ci O Oi N Ne Ar He Si S F Cl Br I X",
          species="""propene3ol       OH               disub_c4ether
                     H2O              disub_epoxy      gQOOHa
                     propene1ol       gQOOHb           ipropylOOH
                     galdoxy          galkene          CH2O
                     O2               gRO2             gQOOHg
                     gR               galdol           monosub_c4ether
                     HO2              gQOOH[O]""",
          reactions='all',
          initial_state=state(temperature=300.0, pressure=OneAtm))

#-------------------------------------------------------------------------------
# Element data
#-------------------------------------------------------------------------------

element(symbol='Ci', atomic_mass=13.003)
element(symbol='D', atomic_mass=2.014)
element(symbol='Oi', atomic_mass=18.0)
element(symbol='T', atomic_mass=3.016)
element(symbol='X', atomic_mass=195.083)
#-------------------------------------------------------------------------------
# Species data
#-------------------------------------------------------------------------------

species(name='propene3ol',
        atoms='C:3 H:6 O:1',
        thermo=(NASA([10.00, 444.81],
                     [ 3.92769709E+00,  4.89977303E-03,  1.13094874E-04,
                      -2.59008187E-07,  1.86205760E-10, -1.67067107E+04,
                       9.90805416E+00]),
                NASA([444.81, 3000.00],
                     [ 2.61720343E+00,  3.01777872E-02, -1.76511625E-05,
                       5.14864061E-09, -5.91153761E-13, -1.67236112E+04,
                       1.36683107E+01])))

species(name='OH',
        atoms='H:1 O:1',
        thermo=(NASA([10.00, 984.14],
                     [ 3.49686242E+00,  1.83973160E-04, -9.97634499E-07,
                       1.56942783E-09, -6.10128175E-13,  3.41673934E+03,
                       1.48093120E+00]),
                NASA([984.14, 3000.00],
                     [ 3.45221464E+00, -2.95124034E-04,  7.39418622E-07,
                      -2.89309866E-10,  3.53041498E-14,  3.45751599E+03,
                       1.85813897E+00])))

species(name='disub_c4ether',
        atoms='C:4 H:8 O:2',
        thermo=(NASA([10.00, 413.50],
                     [ 3.78241323E+00,  1.89501763E-02,  8.65302396E-05,
                      -1.80580575E-07,  1.13656264E-10, -3.98606174E+04,
                       1.09982450E+01]),
                NASA([413.50, 3000.00],
                     [ 4.29420885E-01,  5.13851903E-02, -3.11292293E-05,
                       9.11498284E-09, -1.03192718E-12, -3.95833231E+04,
                       2.42134976E+01])))

species(name='H2O',
        atoms='H:2 O:1',
        thermo=(NASA([10.00, 773.84],
                     [ 4.00473541E+00, -2.39729134E-04,  8.11862955E-07,
                       1.47891862E-09, -1.19783539E-12, -3.03533807E+04,
                      -9.96254147E-02]),
                NASA([773.84, 3000.00],
                     [ 3.52133374E+00,  1.05377009E-03,  6.40722099E-07,
                      -3.86240235E-10,  5.49243294E-14, -3.02424794E+04,
                       2.34173094E+00])))

species(name='disub_epoxy',
        atoms='C:4 H:8 O:2',
        thermo=(NASA([10.00, 549.41],
                     [ 3.89863211E+00,  5.97532637E-03,  1.66685676E-04,
                      -3.10743768E-07,  1.78330192E-10, -3.58219454E+04,
                       1.13847308E+01]),
                NASA([549.41, 3000.00],
                     [-6.40277648E-01,  6.05960003E-02, -4.13427220E-05,
                       1.31555461E-08, -1.57685017E-12, -3.56488286E+04,
                       2.76005436E+01])))

species(name='gQOOHa',
        atoms='C:4 H:9 O:3',
        thermo=(NASA([10.00, 160.74],
                     [ 3.80808147E+00,  2.31043884E-02,  5.26945984E-04,
                      -3.11500696E-06,  6.03881958E-09, -2.37365786E+04,
                       1.17645316E+01]),
                NASA([160.74, 3000.00],
                     [ 2.90630300E+00,  6.50241173E-02, -4.60073244E-05,
                       1.51330930E-08, -1.87074267E-12, -2.37327540E+04,
                       1.36838819E+01])))

species(name='propene1ol',
        atoms='C:3 H:6 O:1',
        thermo=(NASA([10.00, 459.42],
                     [ 3.91245344E+00,  5.85800161E-03,  1.15412006E-04,
                      -2.68014417E-07,  1.91800131E-10, -1.79236750E+04,
                       8.14807684E+00]),
                NASA([459.42, 3000.00],
                     [ 3.14049093E+00,  2.95550898E-02, -1.73843684E-05,
                       5.11506211E-09, -5.92966137E-13, -1.80318976E+04,
                       9.32215170E+00])))

species(name='gQOOHb',
        atoms='C:4 H:9 O:3',
        thermo=(NASA([10.00, 1018.67],
                     [ 3.99028351E+00,  4.29665712E-02,  2.28338778E-05,
                      -5.67914439E-08,  2.29383258E-11, -2.47606227E+04,
                       1.20326731E+01]),
                NASA([1018.67, 3000.00],
                     [ 1.38304153E+01,  3.88527019E-02, -2.19473905E-05,
                       5.78719895E-09, -5.85097740E-13, -2.85567074E+04,
                      -4.44147388E+01])))

species(name='ipropylOOH',
        atoms='C:3 H:7 O:2',
        thermo=(NASA([10.00, 405.01],
                     [ 3.30075623E+00,  7.58672756E-02, -3.35754269E-04,
                       8.05972164E-07, -6.68864582E-10,  6.77289558E+02,
                       1.43372849E+01]),
                NASA([405.01, 3000.00],
                     [ 2.51742509E+00,  3.72760950E-02, -2.12450220E-05,
                       5.83593926E-09, -6.22110649E-13,  1.12069716E+03,
                       2.20991392E+01])))

species(name='galdoxy',
        atoms='C:4 H:7 O:2',
        thermo=(NASA([10.00, 209.62],
                     [ 3.82641108E+00,  1.84758886E-02,  3.43073800E-04,
                      -1.82817005E-06,  2.98516720E-09, -1.65390445E+04,
                       1.17972706E+01]),
                NASA([209.62, 3000.00],
                     [ 4.22049016E+00,  4.03370149E-02, -2.36129482E-05,
                       6.72979114E-09, -7.47862493E-13, -1.66201142E+04,
                       8.97211724E+00])))

species(name='galkene',
        atoms='C:4 H:8 O:1',
        thermo=(NASA([10.00, 383.47],
                     [ 3.84035604E+00,  1.20378740E-02,  1.87486319E-04,
                      -5.44759148E-07,  4.80711015E-10, -1.96152625E+04,
                       1.02570291E+01]),
                NASA([383.47, 3000.00],
                     [ 4.00413385E+00,  3.79025144E-02, -2.15435710E-05,
                       6.15213311E-09, -6.97446345E-13, -1.98305518E+04,
                       6.98052628E+00])))

species(name='CH2O',
        atoms='C:1 H:2 O:1',
        thermo=(NASA([10.00, 601.31],
                     [ 4.03190845E+00, -1.93233367E-03,  8.89743345E-06,
                       2.98105926E-09, -7.90813886E-12, -1.42276270E+04,
                       3.47574660E+00]),
                NASA([601.31, 3000.00],
                     [ 1.40134195E+00,  9.48858016E-03, -4.43088317E-06,
                       9.48452194E-10, -7.43790219E-14, -1.38013869E+04,
                       1.57423780E+01])))

species(name='O2',
        atoms='O:2',
        thermo=(NASA([10.00, 605.96],
                     [ 3.50743498E+00, -4.43860349E-04,  1.45938058E-06,
                       1.61509333E-09, -2.32050052E-12, -9.24756224E+02,
                       4.72183634E+00]),
                NASA([605.96, 3000.00],
                     [ 2.87462882E+00,  2.17840991E-03, -1.18262921E-06,
                       2.86910493E-10, -2.53297146E-14, -8.19517838E+02,
                       7.69331810E+00])))

species(name='gRO2',
        atoms='C:4 H:9 O:3',
        thermo=(NASA([10.00, 177.33],
                     [ 3.70632176E+00,  3.49733664E-02,  4.64036392E-04,
                      -3.18637835E-06,  6.38178607E-09, -3.00708341E+04,
                       1.24459269E+01]),
                NASA([177.33, 3000.00],
                     [ 4.82062697E+00,  5.17179689E-02, -3.18386818E-05,
                       9.52247045E-09, -1.10180288E-12, -3.01762047E+04,
                       7.14082953E+00])))

species(name='gQOOHg',
        atoms='C:4 H:9 O:3',
        thermo=(NASA([10.00, 475.03],
                     [ 3.42273720E+00,  4.98344215E-02,  6.47820920E-05,
                      -2.49842966E-07,  1.98636537E-10, -2.31038573E+04,
                       1.41578583E+01]),
                NASA([475.03, 3000.00],
                     [ 5.94049074E+00,  5.53778585E-02, -3.71708255E-05,
                       1.17540477E-08, -1.40812095E-12, -2.36448116E+04,
                       7.09201218E-01])))

species(name='gR',
        atoms='C:4 H:9 O:1',
        thermo=(NASA([10.00, 638.24],
                     [ 3.37074633E+00,  5.17529751E-02, -6.54872940E-05,
                       6.88084237E-08, -3.21569794E-11, -1.18235952E+04,
                       1.14339669E+01]),
                NASA([638.24, 3000.00],
                     [ 3.99410860E+00,  4.06314915E-02, -2.23932510E-05,
                       6.08356263E-09, -6.49884708E-13, -1.17562205E+04,
                       9.85769960E+00])))

species(name='galdol',
        atoms='C:4 H:8 O:2',
        thermo=(NASA([10.00, 506.68],
                     [ 3.85380874E+00,  9.21272695E-03,  1.86712348E-04,
                      -3.96417049E-07,  2.55528268E-10, -4.53876518E+04,
                       1.24312743E+01]),
                NASA([506.68, 3000.00],
                     [ 1.49710213E+00,  5.65979142E-02, -3.87709084E-05,
                       1.23682052E-08, -1.48287964E-12, -4.55182612E+04,
                       1.85531759E+01])))

species(name='monosub_c4ether',
        atoms='C:4 H:8 O:2',
        thermo=(NASA([10.00, 380.36],
                     [ 3.47743996E+00,  6.08051311E-02, -2.78518945E-04,
                       8.23182713E-07, -7.87158031E-10, -3.39419725E+04,
                       1.06415154E+01]),
                NASA([380.36, 3000.00],
                     [-1.09346901E+00,  5.35985968E-02, -3.21081420E-05,
                       9.20818293E-09, -1.01830294E-12, -3.31944125E+04,
                       3.35312368E+01])))

species(name='HO2',
        atoms='H:1 O:2',
        thermo=(NASA([10.00, 891.11],
                     [ 4.02887004E+00, -1.75769289E-03,  1.08726004E-05,
                      -1.13812972E-08,  3.90113097E-12,  4.95165001E+02,
                       4.69302008E+00]),
                NASA([891.11, 3000.00],
                     [ 3.06571044E+00,  4.28505005E-03, -2.19325920E-06,
                       5.58882699E-10, -5.61246669E-14,  5.98557610E+02,
                       8.84564156E+00])))

species(name='gQOOH[O]',
        atoms='C:4 H:9 O:3',
        thermo=(NASA([10.00, 535.23],
                     [ 3.83107445E+00,  1.02302002E-02,  2.29377261E-04,
                      -4.59095575E-07,  2.77765018E-10, -1.76041674E+04,
                       1.41034859E+01]),
                NASA([535.23, 3000.00],
                     [-4.19283096E-01,  7.69784620E-02, -5.57279000E-05,
                       1.81378295E-08, -2.18295635E-12, -1.76502808E+04,
                       2.72711816E+01])))

#-------------------------------------------------------------------------------
# Reaction data
#-------------------------------------------------------------------------------

# Reaction 1
chebyshev_reaction('gQOOH[O] (+ M) <=> gRO2 (+ M)',
                   Tmin=180.0, Tmax=1500.0,
                   Pmin=(0.01, 'atm'), Pmax=(98.692, 'atm'),
                   coeffs=[[ 9.02400e+00,  1.15800e+00, -2.52200e-01,  5.67200e-03,  1.14800e-02, -5.73600e-04, -9.34100e-04, -6.76500e-05],
                           [-5.27700e-01,  8.23500e-01,  4.42900e-02, -5.03600e-02, -4.66500e-03,  6.35600e-03,  2.16900e-04, -8.94300e-04],
                           [-6.49300e-01,  2.63900e-01,  7.27600e-02,  1.04700e-02, -1.23700e-02, -2.60000e-03,  1.67700e-03,  4.64800e-04],
                           [-4.37000e-01,  1.19300e-01,  2.55200e-02,  1.88400e-02, -1.25500e-03, -4.07100e-03, -3.31500e-04,  6.94000e-04],
                           [-2.43500e-01,  8.16400e-02, -1.47900e-03,  7.02100e-03,  3.80500e-03, -1.00700e-03, -9.66200e-04,  5.29900e-05],
                           [-1.16600e-01,  4.86600e-02, -8.53100e-03, -7.42400e-04,  2.93400e-03,  8.71800e-04, -3.77500e-04, -2.59500e-04],
                           [-4.42200e-02,  2.39300e-02, -8.86600e-03, -2.91300e-03,  1.21600e-03,  1.03100e-03,  1.07700e-04, -1.82000e-04],
                           [-1.03800e-02,  1.15300e-02, -6.67400e-03, -2.93600e-03,  3.26400e-04,  5.85700e-04,  2.01600e-04, -3.65600e-05],
                           [ 1.76500e-03,  5.77200e-03, -3.83300e-03, -1.76500e-03, -2.83700e-04,  2.37100e-04,  1.49500e-04,  1.82400e-05],
                           [ 2.21600e-03,  4.79700e-03, -1.35600e-03, -1.33900e-03, -1.65700e-04,  2.77800e-05,  4.40600e-05,  3.08100e-05]])

# Reaction 2
chebyshev_reaction('gQOOHa (+ M) <=> gRO2 (+ M)',
                   Tmin=180.0, Tmax=1500.0,
                   Pmin=(0.01, 'atm'), Pmax=(98.692, 'atm'),
                   coeffs=[[ 6.05300e+00,  4.72100e-01, -9.81700e-02, -6.51800e-03,  1.65100e-03,  8.57200e-04,  1.28700e-04, -1.96600e-05],
                           [ 1.90000e+00,  8.28100e-01, -1.57600e-01, -1.72100e-02,  2.70700e-03,  1.70100e-03,  3.15300e-04, -4.15000e-05],
                           [ 4.92700e-02,  5.55000e-01, -7.34800e-02, -2.27300e-02,  4.71900e-04,  1.63600e-03,  4.43100e-04, -2.89000e-05],
                           [-3.03100e-01,  2.77800e-01, -3.34400e-03, -1.96100e-02, -2.84500e-03,  1.23500e-03,  5.71900e-04,  2.06700e-05],
                           [-1.75000e-01,  9.86700e-02,  2.30200e-02, -8.67800e-03, -4.85000e-03,  2.89100e-04,  5.99500e-04,  1.04000e-04],
                           [-5.29300e-02,  2.34600e-02,  1.74600e-02,  1.29900e-03, -4.00100e-03, -7.76800e-04,  4.16700e-04,  1.82100e-04],
                           [-1.53100e-02,  6.25000e-03,  4.77600e-03,  4.80600e-03, -1.45700e-03, -1.23800e-03,  6.47300e-05,  1.95100e-04],
                           [-1.07100e-02,  6.13900e-03, -1.94500e-03,  3.38700e-03,  5.60900e-04, -9.10100e-04, -2.37800e-04,  1.19200e-04],
                           [-8.13500e-03,  6.24500e-03, -2.75800e-03,  1.02800e-03,  1.10600e-03, -2.75100e-04, -3.12400e-04,  4.41700e-06],
                           [-4.66700e-03,  4.52700e-03, -1.54200e-03, -2.17500e-04,  7.24300e-04,  1.40700e-04, -1.92800e-04, -7.00700e-05]])

# Reaction 3
chebyshev_reaction('gQOOHg (+ M) <=> gRO2 (+ M)',
                   Tmin=180.0, Tmax=1500.0,
                   Pmin=(0.01, 'atm'), Pmax=(98.692, 'atm'),
                   coeffs=[[ 7.12500e+00,  3.04000e-01, -1.13900e-01,  1.70000e-02,  2.60500e-03, -1.13400e-03, -2.21000e-04,  1.60400e-04],
                           [ 1.39400e+00,  5.34200e-01, -1.89600e-01,  2.12000e-02,  7.65500e-03, -2.36900e-03, -4.81100e-04,  3.04400e-04],
                           [ 1.74200e-01,  3.72800e-01, -1.10900e-01, -1.35100e-03,  9.94900e-03, -1.54400e-03, -7.69600e-04,  2.80000e-04],
                           [-1.37000e-01,  2.15800e-01, -4.30900e-02, -1.45800e-02,  8.00600e-03,  2.29600e-04, -1.01500e-03,  1.65600e-04],
                           [-1.19100e-01,  1.10800e-01, -7.63600e-03, -1.46000e-02,  3.35900e-03,  1.65000e-03, -8.45200e-04, -4.40600e-05],
                           [-5.82600e-02,  5.53300e-02,  3.03600e-03, -8.52900e-03, -4.36700e-04,  1.85000e-03, -3.33600e-04, -2.17400e-04],
                           [-2.64400e-02,  2.86600e-02,  3.45100e-03, -3.13700e-03, -1.85900e-03,  1.15500e-03,  1.41500e-04, -2.44200e-04],
                           [-1.47900e-02,  1.50200e-02,  2.10300e-03, -4.73300e-04, -1.60600e-03,  3.47400e-04,  3.35600e-04, -1.48200e-04],
                           [-8.85100e-03,  7.23100e-03,  1.31300e-03,  2.89600e-04, -8.73500e-04, -1.23300e-04,  2.83900e-04, -2.94700e-05],
                           [-4.42000e-03,  2.73800e-03,  9.46400e-04,  3.35300e-04, -3.21600e-04, -2.47600e-04,  1.43800e-04,  4.11300e-05]])

# Reaction 4
chebyshev_reaction('gQOOHb (+ M) <=> gRO2 (+ M)',
                   Tmin=180.0, Tmax=1500.0,
                   Pmin=(0.01, 'atm'), Pmax=(98.692, 'atm'),
                   coeffs=[[ 1.89600e+00,  5.44900e-01, -9.00800e-02, -8.07600e-03,  1.22700e-03,  3.26300e-04,  5.50000e-05,  7.92500e-06],
                           [ 3.37000e+00,  9.66400e-01, -1.47400e-01, -1.68600e-02,  1.34100e-03,  6.96400e-04,  1.47500e-04,  1.40600e-05],
                           [ 8.78900e-01,  6.64100e-01, -7.18800e-02, -1.67800e-02, -1.27400e-03,  6.73100e-04,  2.32700e-04,  1.68000e-05],
                           [-7.25700e-02,  3.33800e-01, -1.42000e-03, -1.24500e-02, -3.64300e-03,  3.24600e-04,  2.91200e-04,  3.69300e-05],
                           [-2.27600e-01,  1.02300e-01,  3.05600e-02, -4.33300e-03, -4.14200e-03, -3.29400e-04,  2.39800e-04,  7.01300e-05],
                           [-1.32400e-01,  3.01100e-03,  2.54000e-02,  2.95700e-03, -2.50300e-03, -8.96500e-04,  5.92300e-05,  8.86700e-05],
                           [-4.05500e-02, -8.71100e-03,  6.65800e-03,  5.42800e-03, -2.91900e-05, -9.56900e-04, -1.62000e-04,  6.43100e-05],
                           [-5.16900e-03,  5.31700e-03, -5.40700e-03,  3.41700e-03,  1.56200e-03, -4.87400e-04, -2.81200e-04,  8.01100e-07],
                           [-1.81100e-03,  1.12300e-02, -6.37000e-03,  3.10600e-04,  1.57700e-03,  1.13700e-04, -2.25700e-04, -6.12200e-05],
                           [-3.95000e-03,  6.53600e-03, -2.35900e-03, -1.21100e-03,  6.50800e-04,  4.19300e-04, -6.04400e-05, -7.86500e-05]])

# Reaction 5
chebyshev_reaction('O2 + gR (+ M) <=> gRO2 (+ M)',
                   Tmin=180.0, Tmax=1500.0,
                   Pmin=(0.01, 'atm'), Pmax=(98.692, 'atm'),
                   coeffs=[[ 1.23300e+01,  2.08000e-01, -6.08200e-02,  4.28800e-03,  8.60900e-04,  1.43900e-04, -3.16800e-05, -9.74700e-06],
                           [-8.59300e-01,  3.64100e-01, -9.92400e-02,  3.14500e-03,  2.32500e-03,  2.73800e-04, -4.66400e-05, -3.30100e-05],
                           [-3.70000e-01,  2.53200e-01, -5.51500e-02, -5.28300e-03,  2.49400e-03,  3.87900e-04,  9.13000e-07, -5.47600e-05],
                           [-1.82100e-01,  1.47900e-01, -1.95400e-02, -8.70000e-03,  1.37400e-03,  5.63000e-04,  5.31200e-05, -5.05900e-05],
                           [-9.54200e-02,  7.98000e-02, -2.98700e-03, -6.81900e-03, -4.48000e-05,  5.35900e-04,  1.07100e-04, -2.49700e-05],
                           [-5.25600e-02,  4.36700e-02,  1.24800e-03, -3.67400e-03, -6.95300e-04,  2.95000e-04,  1.28500e-04,  5.29700e-06],
                           [-2.95200e-02,  2.39000e-02,  1.82200e-03, -1.72500e-03, -6.20900e-04,  6.15200e-05,  9.75800e-05,  2.44700e-05],
                           [-1.54200e-02,  1.12100e-02,  2.13100e-03, -8.73700e-04, -3.76200e-04, -3.80600e-05,  4.63100e-05,  2.59500e-05],
                           [-6.44200e-03,  3.00500e-03,  2.20800e-03, -3.74000e-04, -2.39000e-04, -5.01200e-05,  1.26200e-05,  1.69200e-05],
                           [-1.21300e-03, -1.44700e-03,  1.80100e-03,  3.32800e-05, -1.71000e-04, -5.09000e-05,  1.13100e-06,  8.89000e-06]])
#  gRO2(+M) <=> gQOOH[O](+M)                           1.000e+00 0.000     0.000
#      TCHEB/ 180.000   1500.000 /
#      PCHEB/ 0.010     98.692   /
#      CHEB/ 10 8/
#      CHEB/ -8.306e+00   1.158e+00    -2.522e-01   5.672e-03    1.148e-02   /
#      CHEB/ -5.736e-04   -9.341e-04   -6.765e-05   1.244e+01    8.235e-01   /
#      CHEB/ 4.429e-02    -5.036e-02   -4.665e-03   6.356e-03    2.169e-04   /
#      CHEB/ -8.943e-04   -4.763e-01   2.639e-01    7.276e-02    1.047e-02   /
#      CHEB/ -1.237e-02   -2.600e-03   1.677e-03    4.648e-04    -3.122e-01  /
#      CHEB/ 1.193e-01    2.552e-02    1.884e-02    -1.255e-03   -4.071e-03  /
#      CHEB/ -3.315e-04   6.940e-04    -1.898e-01   8.164e-02    -1.479e-03  /
#      CHEB/ 7.021e-03    3.805e-03    -1.007e-03   -9.662e-04   5.299e-05   /
#      CHEB/ -9.757e-02   4.866e-02    -8.531e-03   -7.424e-04   2.934e-03   /
#      CHEB/ 8.718e-04    -3.775e-04   -2.595e-04   -3.800e-02   2.393e-02   /
#      CHEB/ -8.866e-03   -2.913e-03   1.216e-03    1.031e-03    1.077e-04   /
#      CHEB/ -1.820e-04   -8.466e-03   1.153e-02    -6.674e-03   -2.936e-03  /
#      CHEB/ 3.264e-04    5.857e-04    2.016e-04    -3.656e-05   2.227e-03   /
#      CHEB/ 5.772e-03    -3.833e-03   -1.765e-03   -2.837e-04   2.371e-04   /
#      CHEB/ 1.495e-04    1.824e-05    2.187e-03    4.797e-03    -1.356e-03  /
#      CHEB/ -1.339e-03   -1.657e-04   2.778e-05    4.406e-05    3.081e-05   /

# Reaction 6
chebyshev_reaction('gQOOHa (+ M) <=> gQOOH[O] (+ M)',
                   Tmin=180.0, Tmax=1500.0,
                   Pmin=(0.01, 'atm'), Pmax=(98.692, 'atm'),
                   coeffs=[[-4.79000e+00, -7.47700e-02, -3.92400e-01, -1.99200e-03,  1.47400e-02,  1.02300e-03, -1.65800e-03, -1.21900e-04],
                           [ 7.16700e+00,  1.69200e+00, -5.17700e-02, -6.40900e-02, -6.75000e-03,  5.06400e-03,  1.63000e-03, -6.08100e-04],
                           [-4.97700e-01,  6.23300e-01,  8.78900e-02, -1.48500e-02, -1.18100e-02, -2.58900e-03,  1.45800e-03,  9.06800e-04],
                           [-4.16700e-01,  2.19700e-01,  6.40100e-02,  3.57000e-05, -6.21200e-03, -8.81200e-04, -3.93000e-05,  2.72200e-04],
                           [-1.45500e-01,  9.29000e-02,  1.35700e-02,  3.73100e-03, -2.82800e-03,  1.75200e-04,  4.70600e-04, -2.13600e-04],
                           [-5.43000e-03,  4.77400e-02, -1.29000e-02,  2.30200e-03,  2.55200e-04, -5.46700e-04,  4.68700e-04,  9.46200e-05],
                           [ 1.99300e-02,  2.68700e-02, -1.43800e-02, -7.27000e-04,  1.56700e-03, -6.23700e-04, -1.29700e-04,  2.46900e-04],
                           [ 1.18400e-02,  1.40200e-02, -6.41800e-03, -1.64100e-03,  9.98000e-04, -2.11400e-04, -3.94000e-04,  8.48000e-05],
                           [-6.72900e-05,  4.17100e-03, -1.37700e-04, -4.52800e-04,  9.38800e-05, -1.50600e-05, -2.62800e-04, -6.16000e-05],
                           [-7.10400e-03,  2.14400e-03,  1.45600e-03,  7.15800e-05,  6.48900e-06,  5.37000e-05, -1.21600e-04, -9.24300e-05]])

# Reaction 7
chebyshev_reaction('gQOOHg (+ M) <=> gQOOH[O] (+ M)',
                   Tmin=180.0, Tmax=1500.0,
                   Pmin=(0.01, 'atm'), Pmax=(98.692, 'atm'),
                   coeffs=[[-3.74100e+00, -3.25000e-01, -3.94600e-01,  2.57000e-02,  1.23900e-02, -3.08900e-04, -1.60100e-03, -8.61100e-05],
                           [ 6.78500e+00,  1.33400e+00, -7.89200e-02, -2.68600e-02, -5.24500e-04,  6.29800e-04,  1.37200e-03, -4.11400e-04],
                           [-3.22300e-01,  5.20900e-01,  1.49700e-02,  4.30100e-03,  2.29300e-03, -5.83900e-03, -2.31600e-04,  1.37800e-03],
                           [-3.50900e-01,  2.48400e-01,  2.33000e-03, -4.73100e-03,  9.07500e-03, -4.61900e-04, -2.70100e-03,  4.80900e-04],
                           [-1.25300e-01,  1.28900e-01, -1.01200e-02, -1.13900e-02,  4.92800e-03,  3.81800e-03, -1.35900e-03, -6.83400e-04],
                           [ 6.27700e-03,  5.84400e-02, -1.26500e-02, -8.71900e-03,  4.90400e-05,  3.06100e-03,  4.11800e-04, -6.47300e-04],
                           [ 2.65600e-02,  2.59300e-02, -8.55900e-03, -4.89100e-03, -1.65400e-03,  1.02300e-03,  8.24600e-04, -1.73000e-04],
                           [ 1.46500e-02,  1.36600e-02, -2.04900e-03, -2.30000e-03, -1.71100e-03, -1.12700e-04,  4.99900e-04,  8.45600e-05],
                           [-2.84000e-03,  5.48200e-03,  2.76900e-03, -3.01000e-04, -1.37500e-03, -4.49400e-04,  1.91600e-04,  1.13900e-04],
                           [-7.92300e-03,  3.32700e-03,  3.34000e-03,  4.43000e-04, -6.61500e-04, -3.79200e-04,  1.03000e-05,  6.47400e-05]])

# Reaction 8
chebyshev_reaction('gQOOHb (+ M) <=> gQOOH[O] (+ M)',
                   Tmin=180.0, Tmax=1500.0,
                   Pmin=(0.01, 'atm'), Pmax=(98.692, 'atm'),
                   coeffs=[[-9.23100e+00, -5.51500e-03, -3.52600e-01, -7.48300e-03,  1.33900e-02,  2.42600e-04, -1.45600e-03, -1.07200e-04],
                           [ 9.55900e+00,  1.85400e+00, -3.31800e-02, -4.99700e-02, -1.24000e-02,  3.53400e-03,  1.60800e-03, -4.07300e-04],
                           [-9.60300e-02,  7.39600e-01,  7.20800e-02, -1.91800e-03, -1.00200e-02, -4.37700e-03,  9.02500e-04,  9.28100e-04],
                           [-4.01900e-01,  2.55600e-01,  5.73800e-02, -2.72100e-03, -5.88400e-04, -5.64800e-04, -9.36800e-04,  4.44700e-05],
                           [-1.72200e-01,  7.84700e-02,  1.52300e-02, -4.46400e-04, -6.14600e-04,  1.54100e-03,  5.24300e-05, -4.96600e-04],
                           [-1.37200e-03,  2.80300e-02, -1.26500e-02,  3.78800e-03, -1.57900e-04, -1.76800e-04,  5.47700e-04, -2.25600e-05],
                           [ 2.77500e-02,  1.70200e-02, -1.40100e-02,  2.33400e-03,  1.22000e-03, -9.87300e-04, -5.60400e-05,  2.62100e-04],
                           [ 1.14000e-02,  9.43300e-03, -4.07700e-03, -2.21700e-04,  1.12700e-03, -3.28700e-04, -4.21100e-04,  7.77000e-05],
                           [-3.20300e-03,  7.94200e-04,  1.97100e-03, -3.79500e-04,  2.38300e-04,  2.14200e-04, -2.15800e-04, -1.08100e-04],
                           [-8.49000e-03, -3.31000e-04,  1.97100e-03, -3.73400e-04,  2.36400e-05,  2.95900e-04,  1.42300e-05, -1.03100e-04]])

# Reaction 9
chebyshev_reaction('O2 + gR (+ M) <=> gQOOH[O] (+ M)',
                   Tmin=180.0, Tmax=1500.0,
                   Pmin=(0.01, 'atm'), Pmax=(98.692, 'atm'),
                   coeffs=[[ 5.37500e+00, -2.26700e-01, -2.90600e-01, -3.49900e-02,  1.30400e-02,  6.61400e-03, -1.32100e-03, -1.35700e-03],
                           [ 1.40500e-01,  8.85400e-01,  5.94000e-02,  8.90000e-03, -1.80800e-02, -5.29800e-03,  2.49900e-03,  1.40200e-03],
                           [-4.05900e-01,  4.28300e-01,  1.78000e-02,  9.60500e-03,  2.10200e-03, -2.96500e-03, -1.00000e-03,  3.18700e-04],
                           [-2.34400e-01,  1.55000e-01, -6.98800e-03, -1.81300e-03,  6.70000e-03,  1.21600e-03, -8.77800e-04, -4.40600e-04],
                           [-2.52100e-02,  5.82700e-02, -1.22700e-02, -8.43100e-03,  2.09500e-03,  2.37600e-03,  3.86000e-04, -3.05800e-04],
                           [ 4.67300e-02,  2.97200e-02, -6.86000e-03, -6.82600e-03, -1.40500e-03,  9.55500e-04,  6.57200e-04,  8.95200e-05],
                           [ 2.81300e-02,  1.88900e-02,  1.15500e-03, -3.58300e-03, -1.99100e-03, -2.24300e-04,  3.02800e-04,  1.95000e-04],
                           [ 4.94600e-03,  9.42800e-03,  5.49000e-03, -1.24500e-03, -1.25800e-03, -4.45300e-04, -9.93000e-06,  9.40800e-05],
                           [-4.21400e-03, -5.03600e-04,  5.06000e-03,  3.99400e-04, -3.96700e-04, -3.23100e-04, -1.33400e-04,  1.23200e-05],
                           [-8.49500e-03, -2.01600e-03,  3.32400e-03,  4.25300e-04, -1.52200e-04, -5.75000e-05, -3.77700e-05, -3.11300e-05]])
#  gRO2(+M) <=> gQOOHa(+M)                             1.000e+00 0.000     0.000
#      TCHEB/ 180.000   1500.000 /
#      PCHEB/ 0.010     98.692   /
#      CHEB/ 10 8/
#      CHEB/ -2.814e+00   4.721e-01    -9.817e-02   -6.518e-03   1.651e-03   /
#      CHEB/ 8.572e-04    1.287e-04    -1.966e-05   8.844e+00    8.281e-01   /
#      CHEB/ -1.576e-01   -1.721e-02   2.707e-03    1.701e-03    3.153e-04   /
#      CHEB/ -4.150e-05   2.110e-01    5.550e-01    -7.348e-02   -2.273e-02  /
#      CHEB/ 4.719e-04    1.636e-03    4.431e-04    -2.890e-05   -2.289e-01  /
#      CHEB/ 2.778e-01    -3.344e-03   -1.961e-02   -2.845e-03   1.235e-03   /
#      CHEB/ 5.719e-04    2.067e-05    -1.464e-01   9.867e-02    2.302e-02   /
#      CHEB/ -8.678e-03   -4.850e-03   2.891e-04    5.995e-04    1.040e-04   /
#      CHEB/ -4.314e-02   2.346e-02    1.746e-02    1.299e-03    -4.001e-03  /
#      CHEB/ -7.768e-04   4.167e-04    1.821e-04    -1.240e-02   6.250e-03   /
#      CHEB/ 4.776e-03    4.806e-03    -1.457e-03   -1.238e-03   6.473e-05   /
#      CHEB/ 1.951e-04    -1.008e-02   6.139e-03    -1.945e-03   3.387e-03   /
#      CHEB/ 5.609e-04    -9.101e-04   -2.378e-04   1.192e-04    -8.139e-03  /
#      CHEB/ 6.245e-03    -2.758e-03   1.028e-03    1.106e-03    -2.751e-04  /
#      CHEB/ -3.124e-04   4.417e-06    -4.784e-03   4.527e-03    -1.542e-03  /
#      CHEB/ -2.175e-04   7.243e-04    1.407e-04    -1.928e-04   -7.007e-05  /
#  gQOOH[O](+M) <=> gQOOHa(+M)                         1.000e+00 0.000     0.000
#      TCHEB/ 180.000   1500.000 /
#      PCHEB/ 0.010     98.692   /
#      CHEB/ 10 8/
#      CHEB/ 3.673e+00    -7.477e-02   -3.924e-01   -1.992e-03   1.474e-02   /
#      CHEB/ 1.023e-03    -1.658e-03   -1.219e-04   1.140e+00    1.692e+00   /
#      CHEB/ -5.177e-02   -6.409e-02   -6.750e-03   5.064e-03    1.630e-03   /
#      CHEB/ -6.081e-04   -5.090e-01   6.233e-01    8.789e-02    -1.485e-02  /
#      CHEB/ -1.181e-02   -2.589e-03   1.458e-03    9.068e-04    -4.673e-01  /
#      CHEB/ 2.197e-01    6.401e-02    3.570e-05    -6.212e-03   -8.812e-04  /
#      CHEB/ -3.930e-05   2.722e-04    -1.706e-01   9.290e-02    1.357e-02   /
#      CHEB/ 3.731e-03    -2.828e-03   1.752e-04    4.706e-04    -2.136e-04  /
#      CHEB/ -1.469e-02   4.774e-02    -1.290e-02   2.302e-03    2.552e-04   /
#      CHEB/ -5.467e-04   4.687e-04    9.462e-05    1.663e-02    2.687e-02   /
#      CHEB/ -1.438e-02   -7.270e-04   1.567e-03    -6.237e-04   -1.297e-04  /
#      CHEB/ 2.469e-04    1.055e-02    1.402e-02    -6.418e-03   -1.641e-03  /
#      CHEB/ 9.980e-04    -2.114e-04   -3.940e-04   8.480e-05    -5.324e-04  /
#      CHEB/ 4.171e-03    -1.377e-04   -4.528e-04   9.388e-05    -1.506e-05  /