units(length='cm', time='s', quantity='mol', act_energy='kcal/mol')

ideal_gas(name='gas',
          elements="H D T C Ci O Oi N Ne Ar He Si S F Cl Br I X",
          species="""OH             bQOOH[O]       acetone
                     H2O            balkoxyketone  ibutenol
                     trisub_epoxy   bQOOHg         CH2O
                     galkene        O2             bR
                     bQOOHa         bRO2           disub_epoxy
                     HO2""",
          reactions='all',
          initial_state=state(temperature=300.0, pressure=OneAtm))

#-------------------------------------------------------------------------------
# Element data
#-------------------------------------------------------------------------------

element(symbol='Ci', atomic_mass=13.003)
element(symbol='D', atomic_mass=2.014)
element(symbol='Oi', atomic_mass=18.0)
element(symbol='T', atomic_mass=3.016)
element(symbol='X', atomic_mass=195.083)
#-------------------------------------------------------------------------------
# Species data
#-------------------------------------------------------------------------------

species(name='OH',
        atoms='H:1 O:1',
        thermo=(NASA([10.00, 984.14],
                     [ 3.49686242E+00,  1.83973160E-04, -9.97634499E-07,
                       1.56942783E-09, -6.10128175E-13,  3.41673934E+03,
                       1.48093120E+00]),
                NASA([984.14, 3000.00],
                     [ 3.45221464E+00, -2.95124034E-04,  7.39418622E-07,
                      -2.89309866E-10,  3.53041498E-14,  3.45751599E+03,
                       1.85813897E+00])))

species(name='bQOOH[O]',
        atoms='C:4 H:9 O:3',
        thermo=(NASA([10.00, 338.69],
                     [ 3.60915854E+00,  3.39069566E-02,  2.22227265E-04,
                      -8.23527342E-07,  8.56246333E-10, -2.21156742E+04,
                       1.23284605E+01]),
                NASA([338.69, 3000.00],
                     [ 5.03198881E+00,  5.46235886E-02, -3.56935806E-05,
                       1.12371751E-08, -1.35390171E-12, -2.24272569E+04,
                       3.82760723E+00])))

species(name='acetone',
        atoms='C:3 H:6 O:1',
        thermo=(NASA([10.00, 414.35],
                     [ 3.73496166E+00,  3.05743218E-02, -1.26253585E-04,
                       3.66080978E-07, -3.31430437E-10, -2.68988364E+04,
                       8.24936012E+00]),
                NASA([414.35, 3000.00],
                     [ 1.70010292E-01,  3.28431468E-02, -1.80960132E-05,
                       4.82960690E-09, -5.02388538E-13, -2.63274533E+04,
                       2.56372653E+01])))

species(name='H2O',
        atoms='H:2 O:1',
        thermo=(NASA([10.00, 773.84],
                     [ 4.00473541E+00, -2.39729134E-04,  8.11862955E-07,
                       1.47891862E-09, -1.19783539E-12, -3.03533807E+04,
                      -9.96254147E-02]),
                NASA([773.84, 3000.00],
                     [ 3.52133374E+00,  1.05377009E-03,  6.40722099E-07,
                      -3.86240235E-10,  5.49243294E-14, -3.02424794E+04,
                       2.34173094E+00])))

species(name='balkoxyketone',
        atoms='C:4 H:7 O:2',
        thermo=(NASA([10.00, 269.93],
                     [ 3.81931151E+00,  1.68519318E-02,  2.42742224E-04,
                      -9.64821161E-07,  1.18509335E-09, -2.12541340E+04,
                       1.20521854E+01]),
                NASA([269.93, 3000.00],
                     [ 3.57555944E+00,  4.28868089E-02, -2.65390705E-05,
                       7.99659117E-09, -9.32983470E-13, -2.13226621E+04,
                       1.13957990E+01])))

species(name='ibutenol',
        atoms='C:4 H:8 O:1',
        thermo=(NASA([10.00, 135.97],
                     [ 3.95714996E+00,  5.72646980E-03,  4.63611760E-04,
                      -3.04137514E-06,  6.85019471E-09, -2.19218806E+04,
                       8.21931848E+00]),
                NASA([135.97, 3000.00],
                     [ 3.32467612E+00,  3.69033556E-02, -1.89960416E-05,
                       4.73417677E-09, -4.59705291E-13, -2.19163019E+04,
                       9.58133237E+00])))

species(name='trisub_epoxy',
        atoms='C:4 H:8 O:2',
        thermo=(NASA([10.00, 209.19],
                     [ 3.75295042E+00,  2.37546930E-02,  1.26610110E-04,
                      -4.78364365E-07,  5.79468168E-10, -4.05135093E+04,
                       1.12739684E+01]),
                NASA([209.19, 3000.00],
                     [ 2.64185254E+00,  4.50006531E-02, -2.57361066E-05,
                       7.15266054E-09, -7.72980731E-13, -4.04670238E+04,
                       1.48960343E+01])))

species(name='bQOOHg',
        atoms='C:4 H:9 O:3',
        thermo=(NASA([10.00, 441.09],
                     [ 3.56595280E+00,  3.36073467E-02,  2.03462772E-04,
                      -5.98977617E-07,  4.83271168E-10, -2.42663814E+04,
                       1.33537891E+01]),
                NASA([441.09, 3000.00],
                     [ 6.09031192E+00,  5.80517622E-02, -4.06392697E-05,
                       1.32574026E-08, -1.62501077E-12, -2.49495669E+04,
                      -1.97849715E+00])))

species(name='CH2O',
        atoms='C:1 H:2 O:1',
        thermo=(NASA([10.00, 601.31],
                     [ 4.03190845E+00, -1.93233367E-03,  8.89743345E-06,
                       2.98105926E-09, -7.90813886E-12, -1.42276270E+04,
                       3.47574660E+00]),
                NASA([601.31, 3000.00],
                     [ 1.40134195E+00,  9.48858016E-03, -4.43088317E-06,
                       9.48452194E-10, -7.43790219E-14, -1.38013869E+04,
                       1.57423780E+01])))

species(name='galkene',
        atoms='C:4 H:8 O:1',
        thermo=(NASA([10.00, 383.47],
                     [ 3.84035604E+00,  1.20378740E-02,  1.87486319E-04,
                      -5.44759148E-07,  4.80711015E-10, -2.12204474E+04,
                       1.02570291E+01]),
                NASA([383.47, 3000.00],
                     [ 4.00413385E+00,  3.79025144E-02, -2.15435710E-05,
                       6.15213311E-09, -6.97446345E-13, -2.14357368E+04,
                       6.98052628E+00])))

species(name='O2',
        atoms='O:2',
        thermo=(NASA([10.00, 605.96],
                     [ 3.50743498E+00, -4.43860349E-04,  1.45938058E-06,
                       1.61509333E-09, -2.32050052E-12, -9.24756224E+02,
                       4.72183634E+00]),
                NASA([605.96, 3000.00],
                     [ 2.87462882E+00,  2.17840991E-03, -1.18262921E-06,
                       2.86910493E-10, -2.53297146E-14, -8.19517838E+02,
                       7.69331810E+00])))

species(name='bR',
        atoms='C:4 H:9 O:1',
        thermo=(NASA([10.00, 483.43],
                     [ 3.38164846E+00,  5.97142637E-02, -1.58320095E-04,
                       3.04908893E-07, -2.13091806E-10, -1.16852421E+04,
                       1.09226843E+01]),
                NASA([483.43, 3000.00],
                     [ 2.33428824E+00,  4.22094427E-02, -2.28029290E-05,
                       6.04614564E-09, -6.30240159E-13, -1.12781601E+04,
                       1.83772893E+01])))

species(name='bQOOHa',
        atoms='C:4 H:9 O:3',
        thermo=(NASA([10.00, 390.53],
                     [ 3.54969236E+00,  3.76592474E-02,  1.76622653E-04,
                      -5.98063750E-07,  5.45069236E-10, -2.91782448E+04,
                       1.31518761E+01]),
                NASA([390.53, 3000.00],
                     [ 5.33564209E+00,  5.64935715E-02, -3.83214298E-05,
                       1.22990604E-08, -1.49549987E-12, -2.96008547E+04,
                       2.59015836E+00])))

species(name='bRO2',
        atoms='C:4 H:9 O:3',
        thermo=(NASA([10.00, 461.39],
                     [ 3.53964713E+00,  3.88723795E-02,  9.57420148E-05,
                      -2.80380499E-07,  2.09647462E-10, -3.28105739E+04,
                       1.18803618E+01]),
                NASA([461.39, 3000.00],
                     [ 3.47201723E+00,  6.00510247E-02, -4.00567321E-05,
                       1.25663813E-08, -1.49496682E-12, -3.30235207E+04,
                       9.77903975E+00])))

species(name='disub_epoxy',
        atoms='C:4 H:8 O:2',
        thermo=(NASA([10.00, 549.41],
                     [ 3.89863211E+00,  5.97532637E-03,  1.66685676E-04,
                      -3.10743768E-07,  1.78330192E-10, -3.69695645E+04,
                       1.13847308E+01]),
                NASA([549.41, 3000.00],
                     [-6.40277648E-01,  6.05960003E-02, -4.13427220E-05,
                       1.31555461E-08, -1.57685017E-12, -3.67964476E+04,
                       2.76005436E+01])))

species(name='HO2',
        atoms='H:1 O:2',
        thermo=(NASA([10.00, 891.11],
                     [ 4.02887004E+00, -1.75769289E-03,  1.08726004E-05,
                      -1.13812972E-08,  3.90113097E-12,  4.95165001E+02,
                       4.69302008E+00]),
                NASA([891.11, 3000.00],
                     [ 3.06571044E+00,  4.28505005E-03, -2.19325920E-06,
                       5.58882699E-10, -5.61246669E-14,  5.98557610E+02,
                       8.84564156E+00])))

#-------------------------------------------------------------------------------
# Reaction data
#-------------------------------------------------------------------------------

# Reaction 1
chebyshev_reaction('bQOOHg (+ M) <=> bRO2 (+ M)',
                   Tmin=180.0, Tmax=1500.0,
                   Pmin=(0.01, 'atm'), Pmax=(98.692, 'atm'),
                   coeffs=[[-1.40500e+00,  9.89600e-01, -7.68700e-02,  1.53900e-03,  1.53400e-03, -8.53400e-04, -2.01200e-05,  9.26800e-05],
                           [ 3.15800e+00,  1.61400e+00, -6.44800e-02, -5.08900e-03,  7.26100e-04, -7.49800e-04, -6.32800e-05,  1.22600e-04],
                           [-1.93300e+00,  8.31400e-01,  9.11000e-02, -1.01000e-02, -4.97300e-03,  7.01700e-04,  2.04800e-05,  1.76100e-05],
                           [-1.75900e+00,  1.81400e-01,  1.45800e-01,  5.21200e-03, -7.92700e-03,  2.31200e-04,  2.86700e-04,  6.28200e-06],
                           [-1.18000e+00, -1.01100e-01,  8.64200e-02,  2.28500e-02, -3.65400e-03, -1.45400e-03,  2.61000e-04,  8.34700e-05],
                           [-6.41800e-01, -1.34200e-01,  1.05700e-02,  2.20500e-02,  3.27700e-03, -1.52400e-03, -2.25800e-04,  5.05800e-05],
                           [-3.06000e-01, -9.54000e-02, -1.94500e-02,  8.21400e-03,  5.64600e-03,  3.03300e-04, -5.35600e-04, -1.68800e-04],
                           [-1.45800e-01, -6.02100e-02, -1.35200e-02, -1.72200e-03,  2.85800e-03,  1.60800e-03, -2.60100e-04, -3.39500e-04],
                           [-6.54100e-02, -3.80200e-02, -1.07600e-03, -1.56400e-03, -4.63100e-04,  1.01000e-03,  1.43300e-04, -2.47700e-04],
                           [-5.63400e-03, -2.81800e-02,  4.04300e-03,  3.71600e-03, -1.12500e-03, -4.88000e-04,  1.23700e-04, -2.93500e-06]])

# Reaction 2
chebyshev_reaction('bQOOHa (+ M) <=> bRO2 (+ M)',
                   Tmin=180.0, Tmax=1500.0,
                   Pmin=(0.01, 'atm'), Pmax=(98.692, 'atm'),
                   coeffs=[[-8.52000e-01,  9.73600e-01,  5.72700e-02, -1.32500e-02, -4.91200e-03,  4.30000e-04,  2.53100e-04,  4.19500e-06],
                           [ 1.09600e+00,  1.49600e+00,  1.40900e-01, -2.03900e-02, -6.98100e-03,  1.20300e-04,  3.02600e-04,  2.53400e-05],
                           [-2.24500e+00,  6.16300e-01,  1.35000e-01,  5.15900e-03, -2.98000e-03, -8.06000e-04, -1.69900e-04,  3.16100e-05],
                           [-1.46700e+00, -1.72900e-03,  6.19100e-02,  2.47700e-02,  2.17100e-03, -1.26200e-03, -4.78500e-04,  1.29100e-06],
                           [-8.67900e-01, -1.69700e-01, -3.74800e-03,  1.94500e-02,  4.90900e-03, -5.62300e-04, -4.49800e-04, -5.15100e-05],
                           [-5.04500e-01, -1.06100e-01, -1.37600e-02,  5.98500e-03,  2.29500e-03,  2.46000e-04, -1.19000e-04, -8.56600e-05],
                           [-2.15000e-01, -4.06600e-02,  7.56700e-03,  2.81700e-03, -7.88700e-04, -1.64300e-04,  5.74000e-05, -6.38500e-05],
                           [-1.39900e-01, -3.19600e-02,  1.62800e-02,  9.25100e-03, -9.23000e-05, -8.47600e-04, -2.30600e-04, -7.05700e-05],
                           [-8.04000e-02, -4.95300e-02,  5.33300e-03,  1.31500e-02,  3.22800e-03, -6.30500e-04, -5.92600e-04, -1.54600e-04],
                           [-2.19700e-02, -5.97000e-02, -1.07900e-02,  1.02500e-02,  5.28700e-03,  2.11900e-04, -5.93700e-04, -2.10000e-04]])

# Reaction 3
chebyshev_reaction('bQOOH[O] (+ M) <=> bRO2 (+ M)',
                   Tmin=180.0, Tmax=1500.0,
                   Pmin=(0.01, 'atm'), Pmax=(98.692, 'atm'),
                   coeffs=[[ 5.34100e+00,  1.77700e+00, -1.09700e-01, -2.54600e-02, -1.12400e-03,  2.12500e-03,  6.02100e-04, -8.78500e-05],
                           [-5.27000e+00,  6.16400e-01,  1.49700e-01,  2.38900e-02, -5.27400e-03, -4.04900e-03, -2.45700e-04,  5.56900e-04],
                           [-3.10200e+00, -4.09100e-02, -3.15800e-02,  5.81900e-03,  7.91700e-03,  2.94800e-03, -1.68300e-04, -5.40400e-04],
                           [-1.53100e+00,  1.05200e-01,  7.74200e-04, -1.08300e-02, -5.19100e-03, -2.54600e-04,  7.88700e-04,  3.48800e-04],
                           [-7.73500e-01,  9.61000e-02,  3.94200e-02,  8.99400e-03, -4.57500e-04, -1.60600e-03, -8.02200e-04, -1.31900e-04],
                           [-4.33300e-01, -6.88300e-03,  2.61000e-02,  1.26200e-02,  4.83200e-03,  1.30100e-03, -2.76600e-04, -4.47300e-04],
                           [-3.37200e-01, -5.87600e-03,  1.86400e-02,  4.67400e-03,  1.21700e-03,  6.66300e-04,  2.59400e-04, -5.88100e-07],
                           [-1.72900e-01, -6.17900e-02,  1.00100e-02,  6.82100e-03,  9.95500e-04, -3.69200e-04, -4.17500e-04, -1.09000e-04],
                           [-6.38900e-02, -7.16900e-02, -4.47500e-03,  5.68700e-03,  3.08800e-03,  6.64700e-04, -3.14200e-04, -3.20100e-04],
                           [-4.60300e-02, -5.78400e-02, -4.88000e-03,  6.52900e-03,  2.66200e-03,  2.89000e-04, -1.93400e-04, -9.03900e-05]])

# Reaction 4
chebyshev_reaction('O2 + bR (+ M) <=> bRO2 (+ M)',
                   Tmin=180.0, Tmax=1500.0,
                   Pmin=(0.01, 'atm'), Pmax=(98.692, 'atm'),
                   coeffs=[[ 9.63000e+00,  5.09000e-01, -9.33300e-02,  1.48800e-02, -2.76900e-03,  2.94700e-04, -5.60600e-05,  8.62600e-05],
                           [-1.25100e+00,  9.04800e-01, -1.36300e-01,  1.18800e-02,  3.10500e-05, -9.29700e-04,  2.82200e-04,  7.23400e-05],
                           [-9.50700e-01,  6.72900e-01, -5.15200e-02, -9.50800e-03,  3.83600e-03, -1.12500e-03,  1.99200e-04,  8.56000e-05],
                           [-7.56600e-01,  4.20600e-01,  2.00200e-02, -1.90700e-02,  3.00100e-03, -9.83300e-05, -5.75400e-05,  7.34000e-05],
                           [-5.59300e-01,  2.12500e-01,  5.63800e-02, -1.51000e-02, -3.58800e-04,  8.71500e-04, -1.09300e-04, -2.13500e-05],
                           [-3.90800e-01,  6.81900e-02,  6.13400e-02, -4.94600e-03, -2.75200e-03,  9.32300e-04,  5.64600e-05, -1.24000e-04],
                           [-2.58000e-01, -1.84300e-02,  4.79600e-02,  4.41800e-03, -2.81000e-03,  3.31000e-04,  1.78400e-04, -1.49800e-04],
                           [-1.58300e-01, -6.20500e-02,  2.83800e-02,  9.65700e-03, -1.12700e-03, -3.10900e-04,  1.04300e-04, -1.05800e-04],
                           [-8.67000e-02, -7.60000e-02,  9.63300e-03,  1.08700e-02,  9.30100e-04, -5.87900e-04, -1.13700e-04, -4.96400e-05],
                           [-3.83400e-02, -7.10500e-02, -4.87100e-03,  9.30900e-03,  2.43700e-03, -5.19100e-04, -3.15900e-04, -2.21200e-05]])
#  bRO2(+M) <=> bQOOHg(+M)                             1.000e+00 0.000     0.000
#      TCHEB/ 180.000   1500.000 /
#      PCHEB/ 0.010     98.692   /
#      CHEB/ 10 8/
#      CHEB/ -1.200e+01   9.896e-01    -7.687e-02   1.539e-03    1.534e-03   /
#      CHEB/ -8.534e-04   -2.012e-05   9.268e-05    1.262e+01    1.614e+00   /
#      CHEB/ -6.448e-02   -5.089e-03   7.261e-04    -7.498e-04   -6.328e-05  /
#      CHEB/ 1.226e-04    -1.787e+00   8.314e-01    9.110e-02    -1.010e-02  /
#      CHEB/ -4.973e-03   7.017e-04    2.048e-05    1.761e-05    -1.721e+00  /
#      CHEB/ 1.814e-01    1.458e-01    5.212e-03    -7.927e-03   2.312e-04   /
#      CHEB/ 2.867e-04    6.282e-06    -1.175e+00   -1.011e-01   8.642e-02   /
#      CHEB/ 2.285e-02    -3.654e-03   -1.454e-03   2.610e-04    8.347e-05   /
#      CHEB/ -6.419e-01   -1.342e-01   1.057e-02    2.205e-02    3.277e-03   /
#      CHEB/ -1.524e-03   -2.258e-04   5.058e-05    -3.066e-01   -9.540e-02  /
#      CHEB/ -1.945e-02   8.214e-03    5.646e-03    3.033e-04    -5.356e-04  /
#      CHEB/ -1.688e-04   -1.462e-01   -6.021e-02   -1.352e-02   -1.722e-03  /
#      CHEB/ 2.858e-03    1.608e-03    -2.601e-04   -3.395e-04   -6.573e-02  /
#      CHEB/ -3.802e-02   -1.076e-03   -1.564e-03   -4.631e-04   1.010e-03   /
#      CHEB/ 1.433e-04    -2.477e-04   -5.820e-03   -2.818e-02   4.043e-03   /
#      CHEB/ 3.716e-03    -1.125e-03   -4.880e-04   1.237e-04    -2.935e-06  /

# Reaction 5
chebyshev_reaction('bQOOHa (+ M) <=> bQOOHg (+ M)',
                   Tmin=180.0, Tmax=1500.0,
                   Pmin=(0.01, 'atm'), Pmax=(98.692, 'atm'),
                   coeffs=[[-1.50400e+01,  1.15200e+00, -1.61600e-01, -7.19900e-02,  1.33300e-02,  5.83500e-04, -2.18700e-03,  1.55300e-03],
                           [ 8.67000e+00,  2.51900e+00,  3.13300e-01, -5.36500e-03, -4.65100e-02,  2.98100e-03,  6.04300e-03, -2.44400e-03],
                           [-2.18700e+00,  5.07900e-01,  6.77000e-02,  7.00700e-02,  2.14900e-02, -9.23500e-03, -4.37900e-03,  1.52800e-03],
                           [-1.85900e+00, -7.59800e-02,  2.09300e-02,  1.32500e-03,  1.22900e-02,  6.22200e-03, -1.51700e-03, -8.02000e-04],
                           [-1.07600e+00, -7.50100e-02,  3.64900e-02, -1.46500e-02, -1.25400e-02,  3.65000e-03,  3.35500e-03, -2.60200e-04],
                           [-5.34900e-01, -5.16400e-02,  1.61600e-02,  9.04600e-03, -7.62600e-03, -4.05300e-03,  8.59600e-04,  8.09400e-04],
                           [-2.47900e-01, -4.72500e-02,  3.45900e-03,  1.68000e-02,  3.20200e-03, -3.69400e-03, -1.63400e-03,  2.52900e-04],
                           [-1.15200e-01, -2.87100e-02,  7.28800e-03,  9.17200e-03,  5.11400e-03,  6.72000e-04, -1.34100e-03, -6.71900e-04],
                           [-5.51200e-02, -2.62100e-02,  8.34300e-03,  4.66600e-03,  2.90700e-03,  2.29200e-03, -1.45800e-04, -6.99700e-04],
                           [-1.69800e-02, -4.57000e-02,  2.21100e-03,  7.21400e-03,  8.97400e-04,  5.61200e-04,  6.67300e-04, -8.32000e-05]])

# Reaction 6
chebyshev_reaction('bQOOH[O] (+ M) <=> bQOOHg (+ M)',
                   Tmin=180.0, Tmax=1500.0,
                   Pmin=(0.01, 'atm'), Pmax=(98.692, 'atm'),
                   coeffs=[[-7.01400e+00,  1.70100e+00, -8.24200e-02, -1.01100e-01, -2.57800e-02,  5.71900e-03,  4.95500e-03,  2.93400e-04],
                           [ 2.84300e-02,  1.25100e+00,  1.52800e-01,  1.29200e-01,  2.73400e-04, -2.17900e-02, -4.28300e-03,  2.84900e-03],
                           [-2.45000e+00,  2.14400e-01, -1.78400e-01, -1.50300e-02,  4.38000e-02,  1.81900e-02, -3.90000e-03, -4.58200e-03],
                           [-1.77800e+00,  1.32000e-01,  4.72800e-02, -5.30200e-02, -1.87600e-02,  6.45400e-03,  5.10500e-03,  6.29400e-04],
                           [-9.68100e-01,  5.54300e-02,  1.33000e-01,  9.00300e-03, -2.21800e-02, -7.40700e-03,  1.52000e-03,  1.82400e-03],
                           [-4.81100e-01, -7.90800e-02,  5.41900e-02,  3.57000e-02,  2.46200e-03, -4.54400e-03, -1.62600e-03, -2.02000e-05],
                           [-3.14000e-01, -6.08400e-02, -1.42700e-03,  2.01800e-02,  9.27100e-03, -1.44500e-04, -1.67000e-03, -5.80600e-04],
                           [-1.39800e-01, -6.93500e-02, -6.85100e-03,  4.15800e-03,  5.44800e-03,  1.96000e-03, -5.82000e-04, -6.48700e-04],
                           [-3.76000e-02, -4.64300e-02, -7.95000e-03, -2.65400e-03,  1.40800e-03,  2.63900e-03,  6.46700e-04, -4.19100e-04],
                           [-2.51200e-02, -3.64700e-02,  3.00500e-03,  3.32300e-03, -1.13600e-03, -2.23200e-04,  5.72000e-04,  2.74400e-04]])

# Reaction 7
chebyshev_reaction('O2 + bR (+ M) <=> bQOOHg (+ M)',
                   Tmin=180.0, Tmax=1500.0,
                   Pmin=(0.01, 'atm'), Pmax=(98.692, 'atm'),
                   coeffs=[[ 2.39600e+00,  2.88400e-01, -5.06300e-01,  6.93400e-02,  6.38700e-03, -9.04200e-03,  2.68800e-03,  1.12800e-04],
                           [-3.65600e-01,  1.99200e+00,  1.05200e-01, -1.35800e-01,  1.45400e-02,  1.05900e-02, -5.32500e-03,  6.54000e-04],
                           [-1.01300e+00,  6.72800e-01,  2.21500e-01, -1.60700e-02, -2.49400e-02,  3.09500e-03,  3.05100e-03, -1.14400e-03],
                           [-9.25600e-01,  7.22900e-02,  1.27500e-01,  3.42600e-02, -5.91300e-03, -7.52500e-03,  1.80800e-03,  8.03100e-04],
                           [-5.91200e-01, -9.92900e-02,  3.20900e-02,  2.24900e-02,  1.16400e-02, -3.85500e-03, -1.83700e-03,  7.52400e-04],
                           [-3.07700e-01, -9.64300e-02, -9.26000e-03, -1.43100e-03,  1.13700e-02,  2.91300e-03, -1.94100e-03, -3.80200e-04],
                           [-1.25800e-01, -4.30700e-02, -1.21800e-02, -1.36700e-02,  3.42300e-03,  4.98900e-03, -1.79800e-04, -7.71600e-04],
                           [-3.75100e-02, -2.26400e-03,  3.39300e-03, -1.29600e-02, -3.34100e-03,  3.30000e-03,  8.99300e-04, -4.55100e-04],
                           [-8.30300e-03,  1.36500e-02,  1.73700e-02, -4.25600e-03, -5.65700e-03,  3.76600e-04,  8.57000e-04, -1.62400e-05],
                           [-4.87400e-03,  1.92400e-03,  2.32400e-02,  5.91600e-03, -4.60100e-03, -1.67000e-03,  1.93700e-04,  2.11700e-04]])
#  bRO2(+M) <=> bQOOHa(+M)                             1.000e+00 0.000     0.000
#      TCHEB/ 180.000   1500.000 /
#      PCHEB/ 0.010     98.692   /
#      CHEB/ 10 8/
#      CHEB/ -4.912e+00   9.736e-01    5.727e-02    -1.325e-02   -4.912e-03  /
#      CHEB/ 4.300e-04    2.531e-04    4.195e-06    5.198e+00    1.496e+00   /
#      CHEB/ 1.409e-01    -2.039e-02   -6.981e-03   1.203e-04    3.026e-04   /
#      CHEB/ 2.534e-05    -2.190e+00   6.163e-01    1.350e-01    5.159e-03   /
#      CHEB/ -2.980e-03   -8.060e-04   -1.699e-04   3.161e-05    -1.465e+00  /
#      CHEB/ -1.729e-03   6.191e-02    2.477e-02    2.171e-03    -1.262e-03  /
#      CHEB/ -4.785e-04   1.291e-06    -8.728e-01   -1.697e-01   -3.748e-03  /
#      CHEB/ 1.945e-02    4.909e-03    -5.623e-04   -4.498e-04   -5.151e-05  /
#      CHEB/ -5.072e-01   -1.061e-01   -1.376e-02   5.985e-03    2.295e-03   /
#      CHEB/ 2.460e-04    -1.190e-04   -8.566e-05   -2.164e-01   -4.066e-02  /
#      CHEB/ 7.567e-03    2.817e-03    -7.887e-04   -1.643e-04   5.740e-05   /
#      CHEB/ -6.385e-05   -1.406e-01   -3.196e-02   1.628e-02    9.251e-03   /
#      CHEB/ -9.230e-05   -8.476e-04   -2.306e-04   -7.057e-05   -8.075e-02  /
#      CHEB/ -4.953e-02   5.333e-03    1.315e-02    3.228e-03    -6.305e-04  /
#      CHEB/ -5.926e-04   -1.546e-04   -2.209e-02   -5.970e-02   -1.079e-02  /
#      CHEB/ 1.025e-02    5.287e-03    2.119e-04    -5.937e-04   -2.100e-04  /
#  bQOOHg(+M) <=> bQOOHa(+M)                           1.000e+00 0.000     0.000
#      TCHEB/ 180.000   1500.000 /
#      PCHEB/ 0.010     98.692   /
#      CHEB/ 10 8/
#      CHEB/ -8.505e+00   1.152e+00    -1.616e-01   -7.199e-02   1.333e-02   /
#      CHEB/ 5.835e-04    -2.187e-03   1.553e-03    3.308e+00    2.519e+00   /
#      CHEB/ 3.133e-01    -5.365e-03   -4.651e-02   2.981e-03    6.043e-03   /
#      CHEB/ -2.444e-03   -2.277e+00   5.079e-01    6.770e-02    7.007e-02   /
#      CHEB/ 2.149e-02    -9.235e-03   -4.379e-03   1.528e-03    -1.895e+00  /
#      CHEB/ -7.598e-02   2.093e-02    1.325e-03    1.229e-02    6.222e-03   /
#      CHEB/ -1.517e-03   -8.020e-04   -1.087e+00   -7.501e-02   3.649e-02   /
#      CHEB/ -1.465e-02   -1.254e-02   3.650e-03    3.355e-03    -2.602e-04  /
#      CHEB/ -5.376e-01   -5.164e-02   1.616e-02    9.046e-03    -7.626e-03  /
#      CHEB/ -4.053e-03   8.596e-04    8.094e-04    -2.486e-01   -4.725e-02  /
#      CHEB/ 3.459e-03    1.680e-02    3.202e-03    -3.694e-03   -1.634e-03  /
#      CHEB/ 2.529e-04    -1.154e-01   -2.871e-02   7.288e-03    9.172e-03   /
#      CHEB/ 5.114e-03    6.720e-04    -1.341e-03   -6.719e-04   -5.514e-02  /
#      CHEB/ -2.621e-02   8.343e-03    4.666e-03    2.907e-03    2.292e-03   /
#      CHEB/ -1.458e-04   -6.997e-04   -1.691e-02   -4.570e-02   2.211e-03   /
#      CHEB/ 7.214e-03    8.974e-04    5.612e-04    6.673e-04    -8.320e-05  /

# Reaction 8
chebyshev_reaction('bQOOH[O] (+ M) <=> bQOOHa (+ M)',
                   Tmin=180.0, Tmax=1500.0,
                   Pmin=(0.01, 'atm'), Pmax=(98.692, 'atm'),
                   coeffs=[[-2.21500e+00,  1.46900e+00, -1.49900e-01, -4.42400e-02, -8.93000e-03, -3.86200e-04,  2.29600e-03,  4.28900e-04],
                           [-4.81500e+00,  1.71700e+00,  3.76100e-01,  1.87400e-03, -7.83400e-03, -4.64200e-03, -2.72100e-03,  7.61200e-04],
                           [-3.21700e+00, -3.59000e-02,  7.82700e-03,  2.25400e-02,  1.50700e-02,  7.83400e-03, -9.19300e-04, -1.94500e-03],
                           [-1.63600e+00, -7.45300e-02, -5.39300e-02, -4.79700e-03, -1.94300e-03,  1.41300e-03,  2.10000e-03,  3.22300e-04],
                           [-7.53400e-01,  2.55400e-02, -6.92200e-03,  5.74700e-03, -1.26000e-03, -3.42600e-03, -5.57500e-04,  4.50400e-04],
                           [-3.65100e-01,  1.42100e-02,  1.22100e-02,  9.67200e-03,  3.69100e-03, -4.16200e-04, -9.87600e-04, -2.84100e-04],
                           [-2.74500e-01,  3.68400e-02,  2.52800e-02,  5.32100e-03,  1.30700e-03,  3.84200e-05, -3.23900e-04, -1.38500e-04],
                           [-1.41100e-01, -3.56900e-02,  2.14700e-02,  1.07900e-02,  1.66100e-03, -2.96600e-04, -6.62800e-04, -2.48800e-04],
                           [-5.59800e-02, -6.65100e-02,  1.59500e-03,  9.94500e-03,  4.35200e-03,  9.23300e-04, -3.91900e-04, -4.03600e-04],
                           [-5.03200e-02, -6.78100e-02, -5.25700e-03,  8.76300e-03,  3.79900e-03,  6.98800e-04, -1.92300e-04, -1.54300e-04]])

# Reaction 9
chebyshev_reaction('O2 + bR (+ M) <=> bQOOHa (+ M)',
                   Tmin=180.0, Tmax=1500.0,
                   Pmin=(0.01, 'atm'), Pmax=(98.692, 'atm'),
                   coeffs=[[ 3.05100e+00,  1.42400e+00,  3.74300e-02, -1.29200e-01, -5.21300e-02,  4.10100e-03,  9.24600e-03,  3.69000e-03],
                           [-1.78100e+00,  8.54300e-01,  1.72300e-02,  1.43900e-01,  3.56400e-02, -1.09700e-02, -1.28900e-02, -4.29800e-03],
                           [-1.19700e+00,  4.51900e-01, -1.17500e-01,  4.58700e-03,  2.26300e-02,  8.32700e-03,  3.00600e-03, -9.15600e-04],
                           [-8.00200e-01,  3.02100e-01, -6.05600e-02, -4.08500e-02,  9.19900e-04,  2.02000e-03,  2.67900e-03,  1.80700e-03],
                           [-4.90500e-01,  2.14300e-01,  2.05300e-02, -3.23300e-02, -7.03200e-03, -1.46400e-03, -4.54200e-04,  5.89300e-04],
                           [-3.02900e-01,  1.28200e-01,  6.37200e-02, -9.65900e-03, -6.95100e-03, -9.98100e-04, -9.30400e-04, -5.57100e-04],
                           [-1.90200e-01,  4.17200e-02,  6.88900e-02,  8.88200e-03, -3.89500e-03, -5.69500e-04, -2.31000e-04, -5.20100e-04],
                           [-1.26500e-01, -2.94300e-02,  4.72700e-02,  1.78700e-02,  1.90400e-04, -3.52400e-04,  1.07300e-04, -1.90100e-04],
                           [-8.31500e-02, -7.22400e-02,  1.88300e-02,  1.80800e-02,  3.12700e-03, -3.02300e-04, -5.63400e-05,  4.65700e-05],
                           [-4.65500e-02, -8.54000e-02, -7.67000e-03,  1.18000e-02,  4.53500e-03,  2.89300e-04, -1.65300e-04,  3.31000e-06]])
#  bRO2(+M) <=> bQOOH[O](+M)                           1.000e+00 0.000     0.000
#      TCHEB/ 180.000   1500.000 /
#      PCHEB/ 0.010     98.692   /
#      CHEB/ 10 8/
#      CHEB/ -8.671e+00   1.777e+00    -1.097e-01   -2.546e-02   -1.124e-03  /
#      CHEB/ 2.125e-03    6.021e-04    -8.785e-05   6.206e+00    6.164e-01   /
#      CHEB/ 1.497e-01    2.389e-02    -5.274e-03   -4.049e-03   -2.457e-04  /
#      CHEB/ 5.569e-04    -3.108e+00   -4.091e-02   -3.158e-02   5.819e-03   /
#      CHEB/ 7.917e-03    2.948e-03    -1.683e-04   -5.404e-04   -1.552e+00  /
#      CHEB/ 1.052e-01    7.742e-04    -1.083e-02   -5.191e-03   -2.546e-04  /
#      CHEB/ 7.887e-04    3.488e-04    -7.843e-01   9.610e-02    3.942e-02   /
#      CHEB/ 8.994e-03    -4.575e-04   -1.606e-03   -8.022e-04   -1.319e-04  /
#      CHEB/ -4.373e-01   -6.883e-03   2.610e-02    1.262e-02    4.832e-03   /
#      CHEB/ 1.301e-03    -2.766e-04   -4.473e-04   -3.388e-01   -5.876e-03  /
#      CHEB/ 1.864e-02    4.674e-03    1.217e-03    6.663e-04    2.594e-04   /
#      CHEB/ -5.881e-07   -1.735e-01   -6.179e-02   1.001e-02    6.821e-03   /
#      CHEB/ 9.955e-04    -3.692e-04   -4.175e-04   -1.090e-04   -6.407e-02  /
#      CHEB/ -7.169e-02   -4.475e-03   5.687e-03    3.088e-03    6.647e-04   /
#      CHEB/ -3.142e-04   -3.201e-04   -4.602e-02   -5.784e-02   -4.880e-03  /
#      CHEB/ 6.529e-03    2.662e-03    2.890e-04    -1.934e-04   -9.039e-05  /
#  bQOOHg(+M) <=> bQOOH[O](+M)                         1.000e+00 0.000     0.000
#      TCHEB/ 180.000   1500.000 /
#      PCHEB/ 0.010     98.692   /
#      CHEB/ 10 8/
#      CHEB/ -1.043e+01   1.701e+00    -8.242e-02   -1.011e-01   -2.578e-02  /
#      CHEB/ 5.719e-03    4.955e-03    2.934e-04    2.041e+00    1.251e+00   /
#      CHEB/ 1.528e-01    1.292e-01    2.734e-04    -2.179e-02   -4.283e-03  /
#      CHEB/ 2.849e-03    -2.602e+00   2.144e-01    -1.784e-01   -1.503e-02  /
#      CHEB/ 4.380e-02    1.819e-02    -3.900e-03   -4.582e-03   -1.836e+00  /