units(length='cm', time='s', quantity='mol', act_energy='kcal/mol')

ideal_gas(name='gas',
          elements="H D T C Ci O Oi N Ne Ar He Si S F Cl Br I X",
          species="""OH             bQOOH[O]       acetone
                     H2O            balkoxyketone  ibutenol
                     trisub_epoxy   bQOOHg         CH2O
                     galkene        O2             bR
                     bQOOHa         bRO2           disub_epoxy
                     HO2""",
          reactions='all',
          initial_state=state(temperature=300.0, pressure=OneAtm))

#-------------------------------------------------------------------------------
# Element data
#-------------------------------------------------------------------------------

element(symbol='Ci', atomic_mass=13.003)
element(symbol='D', atomic_mass=2.014)
element(symbol='Oi', atomic_mass=18.0)
element(symbol='T', atomic_mass=3.016)
element(symbol='X', atomic_mass=195.083)
#-------------------------------------------------------------------------------
# Species data
#-------------------------------------------------------------------------------

species(name='OH',
        atoms='H:1 O:1',
        thermo=(NASA([10.00, 984.14],
                     [ 3.49686242E+00,  1.83973160E-04, -9.97634499E-07,
                       1.56942783E-09, -6.10128175E-13,  3.41673934E+03,
                       1.48093120E+00]),
                NASA([984.14, 3000.00],
                     [ 3.45221464E+00, -2.95124034E-04,  7.39418622E-07,
                      -2.89309866E-10,  3.53041498E-14,  3.45751599E+03,
                       1.85813897E+00])))

species(name='bQOOH[O]',
        atoms='C:4 H:9 O:3',
        thermo=(NASA([10.00, 338.69],
                     [ 3.60915854E+00,  3.39069566E-02,  2.22227265E-04,
                      -8.23527342E-07,  8.56246333E-10, -2.35355232E+04,
                       1.23284605E+01]),
                NASA([338.69, 3000.00],
                     [ 5.03198881E+00,  5.46235886E-02, -3.56935806E-05,
                       1.12371751E-08, -1.35390171E-12, -2.38471059E+04,
                       3.82760723E+00])))

species(name='acetone',
        atoms='C:3 H:6 O:1',
        thermo=(NASA([10.00, 414.35],
                     [ 3.73496166E+00,  3.05743218E-02, -1.26253585E-04,
                       3.66080978E-07, -3.31430437E-10, -2.54158561E+04,
                       8.24936012E+00]),
                NASA([414.35, 3000.00],
                     [ 1.70010292E-01,  3.28431468E-02, -1.80960132E-05,
                       4.82960690E-09, -5.02388538E-13, -2.48444730E+04,
                       2.56372653E+01])))

species(name='H2O',
        atoms='H:2 O:1',
        thermo=(NASA([10.00, 773.84],
                     [ 4.00473541E+00, -2.39729134E-04,  8.11862955E-07,
                       1.47891862E-09, -1.19783539E-12, -3.03533807E+04,
                      -9.96254147E-02]),
                NASA([773.84, 3000.00],
                     [ 3.52133374E+00,  1.05377009E-03,  6.40722099E-07,
                      -3.86240235E-10,  5.49243294E-14, -3.02424794E+04,
                       2.34173094E+00])))

species(name='balkoxyketone',
        atoms='C:4 H:7 O:2',
        thermo=(NASA([10.00, 269.93],
                     [ 3.81931151E+00,  1.68519318E-02,  2.42742224E-04,
                      -9.64821161E-07,  1.18509335E-09, -1.98272333E+04,
                       1.20521854E+01]),
                NASA([269.93, 3000.00],
                     [ 3.57555944E+00,  4.28868089E-02, -2.65390705E-05,
                       7.99659117E-09, -9.32983470E-13, -1.98957614E+04,
                       1.13957990E+01])))

species(name='ibutenol',
        atoms='C:4 H:8 O:1',
        thermo=(NASA([10.00, 135.97],
                     [ 3.95714996E+00,  5.72646980E-03,  4.63611760E-04,
                      -3.04137514E-06,  6.85019471E-09, -2.42710209E+04,
                       8.21931848E+00]),
                NASA([135.97, 3000.00],
                     [ 3.32467612E+00,  3.69033556E-02, -1.89960416E-05,
                       4.73417677E-09, -4.59705291E-13, -2.42654423E+04,
                       9.58133237E+00])))

species(name='trisub_epoxy',
        atoms='C:4 H:8 O:2',
        thermo=(NASA([10.00, 209.19],
                     [ 3.75295042E+00,  2.37546930E-02,  1.26610110E-04,
                      -4.78364365E-07,  5.79468168E-10, -3.94037061E+04,
                       1.12739684E+01]),
                NASA([209.19, 3000.00],
                     [ 2.64185254E+00,  4.50006531E-02, -2.57361066E-05,
                       7.15266054E-09, -7.72980731E-13, -3.93572205E+04,
                       1.48960343E+01])))

species(name='bQOOHg',
        atoms='C:4 H:9 O:3',
        thermo=(NASA([10.00, 441.09],
                     [ 3.56595280E+00,  3.36073467E-02,  2.03462772E-04,
                      -5.98977617E-07,  4.83271168E-10, -2.31108045E+04,
                       1.33537891E+01]),
                NASA([441.09, 3000.00],
                     [ 6.09031192E+00,  5.80517622E-02, -4.06392697E-05,
                       1.32574026E-08, -1.62501077E-12, -2.37939900E+04,
                      -1.97849715E+00])))

species(name='CH2O',
        atoms='C:1 H:2 O:1',
        thermo=(NASA([10.00, 601.31],
                     [ 4.03190845E+00, -1.93233367E-03,  8.89743345E-06,
                       2.98105926E-09, -7.90813886E-12, -1.42276270E+04,
                       3.47574660E+00]),
                NASA([601.31, 3000.00],
                     [ 1.40134195E+00,  9.48858016E-03, -4.43088317E-06,
                       9.48452194E-10, -7.43790219E-14, -1.38013869E+04,
                       1.57423780E+01])))

species(name='galkene',
        atoms='C:4 H:8 O:1',
        thermo=(NASA([10.00, 383.47],
                     [ 3.84035604E+00,  1.20378740E-02,  1.87486319E-04,
                      -5.44759148E-07,  4.80711015E-10, -2.33547712E+04,
                       1.02570291E+01]),
                NASA([383.47, 3000.00],
                     [ 4.00413385E+00,  3.79025144E-02, -2.15435710E-05,
                       6.15213311E-09, -6.97446345E-13, -2.35700606E+04,
                       6.98052628E+00])))

species(name='O2',
        atoms='O:2',
        thermo=(NASA([10.00, 605.96],
                     [ 3.50743498E+00, -4.43860349E-04,  1.45938058E-06,
                       1.61509333E-09, -2.32050052E-12, -9.24756224E+02,
                       4.72183634E+00]),
                NASA([605.96, 3000.00],
                     [ 2.87462882E+00,  2.17840991E-03, -1.18262921E-06,
                       2.86910493E-10, -2.53297146E-14, -8.19517838E+02,
                       7.69331810E+00])))

species(name='bR',
        atoms='C:4 H:9 O:1',
        thermo=(NASA([10.00, 483.43],
                     [ 3.38164846E+00,  5.97142637E-02, -1.58320095E-04,
                       3.04908893E-07, -2.13091806E-10, -1.36051872E+04,
                       1.09226843E+01]),
                NASA([483.43, 3000.00],
                     [ 2.33428824E+00,  4.22094427E-02, -2.28029290E-05,
                       6.04614564E-09, -6.30240159E-13, -1.31981052E+04,
                       1.83772893E+01])))

species(name='bQOOHa',
        atoms='C:4 H:9 O:3',
        thermo=(NASA([10.00, 390.53],
                     [ 3.54969236E+00,  3.76592474E-02,  1.76622653E-04,
                      -5.98063750E-07,  5.45069236E-10, -2.74241169E+04,
                       1.31518761E+01]),
                NASA([390.53, 3000.00],
                     [ 5.33564209E+00,  5.64935715E-02, -3.83214298E-05,
                       1.22990604E-08, -1.49549987E-12, -2.78467269E+04,
                       2.59015836E+00])))

species(name='bRO2',
        atoms='C:4 H:9 O:3',
        thermo=(NASA([10.00, 461.39],
                     [ 3.53964713E+00,  3.88723795E-02,  9.57420148E-05,
                      -2.80380499E-07,  2.09647462E-10, -3.31969906E+04,
                       1.18803618E+01]),
                NASA([461.39, 3000.00],
                     [ 3.47201723E+00,  6.00510247E-02, -4.00567321E-05,
                       1.25663813E-08, -1.49496682E-12, -3.34099374E+04,
                       9.77903975E+00])))

species(name='disub_epoxy',
        atoms='C:4 H:8 O:2',
        thermo=(NASA([10.00, 549.41],
                     [ 3.89863211E+00,  5.97532637E-03,  1.66685676E-04,
                      -3.10743768E-07,  1.78330192E-10, -3.56475227E+04,
                       1.13847308E+01]),
                NASA([549.41, 3000.00],
                     [-6.40277648E-01,  6.05960003E-02, -4.13427220E-05,
                       1.31555461E-08, -1.57685017E-12, -3.54744059E+04,
                       2.76005436E+01])))

species(name='HO2',
        atoms='H:1 O:2',
        thermo=(NASA([10.00, 891.11],
                     [ 4.02887004E+00, -1.75769289E-03,  1.08726004E-05,
                      -1.13812972E-08,  3.90113097E-12,  4.95165001E+02,
                       4.69302008E+00]),
                NASA([891.11, 3000.00],
                     [ 3.06571044E+00,  4.28505005E-03, -2.19325920E-06,
                       5.58882699E-10, -5.61246669E-14,  5.98557610E+02,
                       8.84564156E+00])))

#-------------------------------------------------------------------------------
# Reaction data
#-------------------------------------------------------------------------------

# Reaction 1
chebyshev_reaction('bQOOHg (+ M) <=> bRO2 (+ M)',
                   Tmin=180.0, Tmax=1500.0,
                   Pmin=(0.01, 'atm'), Pmax=(98.692, 'atm'),
                   coeffs=[[ 3.96100e+00,  1.42400e+00, -1.91100e-01, -2.72300e-02,  1.47300e-03,  1.78700e-03,  1.51800e-04,  5.57600e-05],
                           [ 1.22200e+00,  1.41600e+00, -4.28900e-03, -5.11200e-02, -1.25900e-02,  1.14800e-03,  1.78800e-03,  2.32400e-04],
                           [-6.53000e-02,  3.67600e-01,  7.72200e-02,  1.23900e-02, -9.45900e-03, -5.01100e-03, -5.95300e-05,  7.28300e-04],
                           [-4.11600e-01,  1.63300e-01,  1.49900e-02,  1.41400e-02,  4.04700e-03, -2.24300e-03, -1.69100e-03, -1.01900e-04],
                           [-3.35200e-01,  1.28100e-01, -2.68900e-03, -3.68000e-04,  3.66700e-03,  1.17500e-03, -4.81400e-04, -5.04800e-04],
                           [-1.54800e-01,  5.03400e-02,  5.08400e-03, -1.33200e-03, -3.42100e-04,  8.82700e-04,  4.20400e-04, -1.24200e-04],
                           [-4.93100e-02, -3.29400e-03,  6.05200e-03,  1.35500e-03, -7.86900e-04, -1.04700e-04,  2.29500e-04,  1.19800e-04],
                           [-2.12600e-02, -6.71800e-03,  6.12000e-05,  1.60700e-03,  1.08200e-04, -2.54600e-04, -5.60900e-05,  7.26100e-05],
                           [-1.43200e-02,  1.42600e-03, -2.23800e-03,  3.43300e-04,  3.55700e-04, -3.04700e-05, -7.54900e-05, -1.23100e-05],
                           [-5.12200e-03,  1.18800e-03, -1.00300e-03, -2.38900e-04,  8.94300e-05,  7.43700e-05, -7.68100e-06, -2.72300e-05]])

# Reaction 2
chebyshev_reaction('bQOOHa (+ M) <=> bRO2 (+ M)',
                   Tmin=180.0, Tmax=1500.0,
                   Pmin=(0.01, 'atm'), Pmax=(98.692, 'atm'),
                   coeffs=[[ 1.43100e+00,  1.67500e+00, -1.28900e-01, -2.86200e-02, -2.13300e-03,  1.19900e-03,  3.77900e-05, -1.01900e-04],
                           [ 2.65100e+00,  1.15100e+00,  8.64700e-02, -5.12700e-03, -8.70100e-03, -3.56300e-03, -2.07700e-05,  3.23000e-04],
                           [ 4.61500e-01,  1.50600e-01,  2.65400e-02,  1.98800e-02,  5.57200e-03, -2.82600e-04, -9.83500e-04, -3.29500e-04],
                           [-3.78600e-01,  1.71600e-01, -1.84500e-02, -6.01500e-03,  3.43300e-03,  2.25100e-03,  3.69000e-04, -1.59000e-04],
                           [-3.78100e-01,  1.60000e-01,  3.65600e-03, -6.26100e-03, -2.10800e-03, -2.09000e-05,  4.83800e-04,  2.15600e-04],
                           [-1.56500e-01,  4.96900e-02,  1.41200e-02,  1.40100e-03, -1.26100e-03, -7.52300e-04, -1.24500e-04,  7.06500e-05],
                           [-4.67800e-02, -9.23800e-04,  5.52300e-03,  2.03400e-03,  5.02400e-04, -8.03700e-05, -1.81700e-04, -6.50700e-05],
                           [-2.91100e-02,  1.29900e-03, -1.57300e-03,  5.62300e-04,  4.69900e-04,  1.81100e-04,  1.37500e-06, -3.21900e-05],
                           [-2.02900e-02,  2.74100e-03, -6.05800e-04, -1.45100e-04, -1.16100e-05,  4.56100e-05,  5.69400e-05,  1.11300e-05],
                           [-6.48100e-03, -4.36800e-04, -3.01400e-04,  1.95800e-04, -5.69700e-05, -3.56900e-05, -3.44300e-07,  1.29300e-05]])

# Reaction 3
chebyshev_reaction('bQOOH[O] (+ M) <=> bRO2 (+ M)',
                   Tmin=180.0, Tmax=1500.0,
                   Pmin=(0.01, 'atm'), Pmax=(98.692, 'atm'),
                   coeffs=[[ 9.30200e+00,  1.86600e+00, -1.67400e-01, -6.35700e-02, -1.15600e-02,  2.72000e-03,  2.60200e-03,  6.33900e-04],
                           [-8.45700e-01,  4.04000e-01,  5.94800e-02,  1.45200e-02, -3.68200e-03, -5.09100e-03, -1.78900e-03,  1.93800e-04],
                           [-5.38900e-01,  2.38200e-01,  9.41000e-03,  5.75700e-03,  2.83500e-03,  5.85100e-06, -7.59200e-04, -4.36200e-04],
                           [-3.57600e-01,  1.70100e-01,  9.37000e-03,  1.99100e-03,  1.06000e-03,  1.19400e-04, -1.54200e-04, -1.26700e-04],
                           [-2.36300e-01,  1.01600e-01,  9.28700e-03,  1.21000e-03,  6.42800e-04,  1.06600e-04, -7.10000e-05, -6.41100e-05],
                           [-1.45100e-01,  5.06300e-02,  8.00700e-03,  7.84100e-04,  2.76000e-04,  1.06500e-04,  5.46900e-06, -2.37800e-05],
                           [-7.77700e-02,  1.78900e-02,  4.91700e-03,  5.29600e-04,  1.32200e-04,  1.20300e-04,  4.09400e-05, -2.70100e-06],
                           [-3.95700e-02,  4.15600e-03,  2.76100e-03,  4.00400e-04, -5.91500e-05,  2.55100e-05,  3.75700e-05,  1.91000e-05],
                           [-1.64000e-02, -1.61200e-03,  4.63400e-04,  2.29200e-04,  1.17000e-05,  2.15200e-05,  1.71500e-05,  9.87200e-06],
                           [-7.13400e-03, -1.16600e-03, -1.40100e-04,  6.53700e-05, -3.39700e-05, -2.29500e-05,  6.33700e-06,  1.12700e-05]])

# Reaction 4
chebyshev_reaction('O2 + bR (+ M) <=> bRO2 (+ M)',
                   Tmin=180.0, Tmax=1500.0,
                   Pmin=(0.01, 'atm'), Pmax=(98.692, 'atm'),
                   coeffs=[[ 1.39300e+01,  6.04400e-01, -7.86900e-02,  4.29900e-03, -7.89900e-04,  1.67300e-05,  1.14800e-05,  5.47400e-06],
                           [-1.25400e+00,  8.23500e-01, -4.18100e-02, -1.28800e-02,  9.58400e-04,  5.85900e-05, -4.01300e-05,  2.04700e-06],
                           [-6.37600e-01,  3.35600e-01,  3.40000e-02, -7.99800e-03, -1.49800e-03,  8.25200e-05,  6.06900e-05, -1.15400e-05],
                           [-3.22700e-01,  9.11800e-02,  2.97800e-02,  1.98700e-03, -1.01100e-03, -3.17500e-04,  2.25600e-05,  1.36700e-05],
                           [-1.70100e-01,  2.83100e-02,  9.95800e-03,  2.99400e-03,  2.80500e-04, -1.46600e-04, -6.04100e-05,  1.56900e-06],
                           [-1.00300e-01,  1.72400e-02,  2.97400e-03,  8.46600e-04,  2.90000e-04,  8.57400e-05, -2.14100e-05, -1.15800e-05],
                           [-5.76800e-02,  7.08100e-03,  2.76200e-03,  1.98500e-04, -5.11600e-05,  4.81100e-05,  1.89200e-05, -1.19700e-06],
                           [-2.69300e-02, -2.60400e-03,  2.16700e-03,  3.91400e-04, -4.75700e-05, -2.89400e-05,  6.28500e-06,  4.80800e-06],
                           [-7.36400e-03, -6.44100e-03,  6.04200e-04,  3.73600e-04,  6.01100e-05, -1.88700e-05, -7.25500e-06,  6.21800e-07],
                           [ 2.83800e-03, -6.11800e-03, -3.75000e-04,  1.28100e-04,  6.55000e-05,  1.02800e-05, -2.45100e-06, -1.77100e-06]])
#  bRO2(+M) <=> bQOOHg(+M)                             1.000e+00 0.000     0.000
#      TCHEB/ 180.000   1500.000 /
#      PCHEB/ 0.010     98.692   /
#      CHEB/ 10 8/
#      CHEB/ -8.714e+00   1.424e+00    -1.911e-01   -2.723e-02   1.473e-03   /
#      CHEB/ 1.787e-03    1.518e-04    5.576e-05    1.232e+01    1.416e+00   /
#      CHEB/ -4.289e-03   -5.112e-02   -1.259e-02   1.148e-03    1.788e-03   /
#      CHEB/ 2.324e-04    8.046e-02    3.676e-01    7.722e-02    1.239e-02   /
#      CHEB/ -9.459e-03   -5.011e-03   -5.953e-05   7.283e-04    -3.745e-01  /
#      CHEB/ 1.633e-01    1.499e-02    1.414e-02    4.047e-03    -2.243e-03  /
#      CHEB/ -1.691e-03   -1.019e-04   -3.295e-01   1.281e-01    -2.689e-03  /
#      CHEB/ -3.680e-04   3.667e-03    1.175e-03    -4.814e-04   -5.048e-04  /
#      CHEB/ -1.550e-01   5.034e-02    5.084e-03    -1.332e-03   -3.421e-04  /
#      CHEB/ 8.827e-04    4.204e-04    -1.242e-04   -4.989e-02   -3.294e-03  /
#      CHEB/ 6.052e-03    1.355e-03    -7.869e-04   -1.047e-04   2.295e-04   /
#      CHEB/ 1.198e-04    -2.171e-02   -6.718e-03   6.120e-05    1.607e-03   /
#      CHEB/ 1.082e-04    -2.546e-04   -5.609e-05   7.261e-05    -1.465e-02  /
#      CHEB/ 1.426e-03    -2.238e-03   3.433e-04    3.557e-04    -3.047e-05  /
#      CHEB/ -7.549e-05   -1.231e-05   -5.308e-03   1.188e-03    -1.003e-03  /
#      CHEB/ -2.389e-04   8.943e-05    7.437e-05    -7.681e-06   -2.723e-05  /

# Reaction 5
chebyshev_reaction('bQOOHa (+ M) <=> bQOOHg (+ M)',
                   Tmin=180.0, Tmax=1500.0,
                   Pmin=(0.01, 'atm'), Pmax=(98.692, 'atm'),
                   coeffs=[[-9.40900e+00,  1.74100e+00, -3.25500e-01, -8.16900e-02, -6.55300e-03,  2.88900e-03,  9.27000e-04,  1.57100e-04],
                           [ 9.03600e+00,  1.57100e+00,  1.48800e-01, -2.66800e-04, -1.56700e-02, -3.93500e-03,  5.72500e-04,  1.87800e-04],
                           [-1.57300e-03,  4.06400e-01,  5.41400e-02,  2.61700e-02,  7.92500e-04, -4.24600e-03, -1.03700e-03,  6.04100e-04],
                           [-5.34900e-01,  2.10000e-01,  4.90000e-03,  5.38000e-03,  4.93100e-03,  3.39200e-04, -1.20200e-03, -5.23500e-04],
                           [-1.33400e-01,  1.25100e-02,  1.75200e-02,  1.78700e-03, -1.29800e-04,  9.64800e-04,  2.64300e-04, -2.97500e-04],
                           [ 3.33700e-02, -4.04600e-02,  6.74900e-03,  3.99100e-03, -2.18600e-04, -1.75400e-04,  1.82100e-04,  1.15400e-04],
                           [ 2.86000e-02, -1.88500e-02, -3.36400e-05,  1.29700e-03,  5.27500e-04, -4.13300e-05, -9.93600e-05,  3.25600e-05],
                           [ 9.92200e-03, -1.28900e-02,  2.21200e-03, -3.84700e-04,  1.59700e-04,  1.56100e-04, -1.77100e-05, -3.45900e-05],
                           [ 2.91900e-04, -1.08200e-02,  2.25600e-03,  1.45500e-06, -4.56100e-05, -4.07800e-06,  2.70200e-05, -1.34900e-06],
                           [-1.11900e-03, -7.46400e-03, -1.80600e-04,  7.84900e-05,  1.05000e-04, -1.53700e-05,  6.11700e-06,  6.67600e-06]])

# Reaction 6
chebyshev_reaction('bQOOH[O] (+ M) <=> bQOOHg (+ M)',
                   Tmin=180.0, Tmax=1500.0,
                   Pmin=(0.01, 'atm'), Pmax=(98.692, 'atm'),
                   coeffs=[[-1.10400e+00,  1.48200e+00, -4.04900e-01, -9.81700e-02, -4.98200e-03,  6.31900e-03,  2.59900e-03,  3.35900e-04],
                           [ 3.88000e+00,  1.46900e+00,  1.44600e-01, -1.78900e-02, -2.30300e-02, -5.54400e-03,  6.00700e-04,  6.41400e-04],
                           [-1.55800e-01,  4.57600e-01,  8.39400e-02,  3.61400e-02, -1.57100e-03, -7.42700e-03, -2.24900e-03,  4.31200e-04],
                           [-5.89500e-01,  2.38800e-01,  1.35400e-02,  1.28800e-02,  7.75800e-03,  1.98400e-05, -1.82400e-03, -7.53200e-04],
                           [-2.37000e-01,  6.87100e-02,  1.37100e-02,  6.97900e-04,  1.72900e-03,  1.97000e-03,  3.15100e-04, -4.59200e-04],
                           [-2.01800e-02, -3.69600e-03,  7.76700e-03,  2.57800e-03, -7.04700e-04,  1.86800e-04,  4.84400e-04,  1.48700e-04],
                           [ 5.31900e-03, -8.24200e-03, -1.19500e-03,  1.57300e-03,  2.81500e-04, -9.80100e-05,  5.55600e-06,  1.02900e-04],
                           [-3.47500e-03,  1.02000e-03,  1.03400e-03, -2.24000e-05, -3.47900e-05, -6.67300e-05, -7.57600e-05,  1.33900e-05],
                           [-8.81300e-03, -4.26100e-03,  1.02200e-03, -1.90300e-04, -2.54900e-05,  6.77100e-05,  4.85600e-06, -2.98000e-05],
                           [-5.99300e-03, -5.36100e-03,  3.98600e-04,  1.13800e-04, -3.03300e-05, -9.34100e-06,  2.04300e-05,  2.08900e-06]])

# Reaction 7
chebyshev_reaction('O2 + bR (+ M) <=> bQOOHg (+ M)',
                   Tmin=180.0, Tmax=1500.0,
                   Pmin=(0.01, 'atm'), Pmax=(98.692, 'atm'),
                   coeffs=[[ 7.63900e+00,  4.60100e-01, -2.93100e-01, -5.90600e-02, -2.45700e-03,  6.42200e-03,  2.01400e-03, -4.81700e-04],
                           [ 2.65200e-01,  1.24700e+00,  1.05700e-01, -4.62000e-03, -1.45700e-02, -7.99200e-03, -3.22300e-04,  1.49500e-03],
                           [-1.82600e-01,  2.85300e-01,  9.20000e-02,  1.19300e-02, -7.03300e-04, -2.38600e-03, -1.52500e-03, -3.14000e-04],
                           [-1.01000e-01, -3.27700e-02,  3.24900e-02,  1.23900e-02,  2.31000e-03, -1.35800e-04, -5.25400e-04, -3.47800e-04],
                           [ 2.08300e-02, -4.11800e-02,  2.12800e-03,  4.74600e-03,  1.67600e-03,  3.89600e-04, -3.62700e-05, -1.07900e-04],
                           [ 3.92200e-02, -9.94300e-03, -1.06500e-03,  1.08600e-03,  5.28500e-04,  2.29800e-04,  4.81500e-05, -1.62800e-05],
                           [ 1.51900e-02, -1.62600e-03,  2.05100e-04,  7.37500e-04,  1.97600e-04,  3.68300e-05,  2.39300e-05,  4.71800e-06],
                           [-4.95900e-04, -3.56400e-03, -8.06800e-04,  4.85500e-04,  2.82200e-04,  3.15400e-05, -1.37600e-06, -1.65600e-07],
                           [-2.52700e-03, -3.06200e-03, -1.73800e-03, -6.49300e-05,  1.89000e-04,  5.41400e-05,  3.94200e-06, -4.98800e-07],
                           [-2.62400e-03, -1.23000e-03, -1.34600e-03, -3.69200e-04,  1.87400e-05,  3.69500e-05,  1.17000e-05,  2.06300e-06]])
#  bRO2(+M) <=> bQOOHa(+M)                             1.000e+00 0.000     0.000
#      TCHEB/ 180.000   1500.000 /
#      PCHEB/ 0.010     98.692   /
#      CHEB/ 10 8/
#      CHEB/ -5.521e+00   1.675e+00    -1.289e-01   -2.862e-02   -2.133e-03  /
#      CHEB/ 1.199e-03    3.779e-05    -1.019e-04   9.025e+00    1.151e+00   /
#      CHEB/ 8.647e-02    -5.127e-03   -8.701e-03   -3.563e-03   -2.077e-05  /
#      CHEB/ 3.230e-04    5.165e-01    1.506e-01    2.654e-02    1.988e-02   /
#      CHEB/ 5.572e-03    -2.826e-04   -9.835e-04   -3.295e-04   -3.773e-01  /
#      CHEB/ 1.716e-01    -1.845e-02   -6.015e-03   3.433e-03    2.251e-03   /
#      CHEB/ 3.690e-04    -1.590e-04   -3.829e-01   1.600e-01    3.656e-03   /
#      CHEB/ -6.261e-03   -2.108e-03   -2.090e-05   4.838e-04    2.156e-04   /
#      CHEB/ -1.593e-01   4.969e-02    1.412e-02    1.401e-03    -1.261e-03  /
#      CHEB/ -7.523e-04   -1.245e-04   7.065e-05    -4.813e-02   -9.238e-04  /
#      CHEB/ 5.523e-03    2.034e-03    5.024e-04    -8.037e-05   -1.817e-04  /
#      CHEB/ -6.507e-05   -2.983e-02   1.299e-03    -1.573e-03   5.623e-04   /
#      CHEB/ 4.699e-04    1.811e-04    1.375e-06    -3.219e-05   -2.064e-02  /
#      CHEB/ 2.741e-03    -6.058e-04   -1.451e-04   -1.161e-05   4.561e-05   /
#      CHEB/ 5.694e-05    1.113e-05    -6.600e-03   -4.368e-04   -3.014e-04  /
#      CHEB/ 1.958e-04    -5.697e-05   -3.569e-05   -3.443e-07   1.293e-05   /
#  bQOOHg(+M) <=> bQOOHa(+M)                           1.000e+00 0.000     0.000
#      TCHEB/ 180.000   1500.000 /
#      PCHEB/ 0.010     98.692   /
#      CHEB/ 10 8/
#      CHEB/ -3.686e+00   1.741e+00    -3.255e-01   -8.169e-02   -6.553e-03  /
#      CHEB/ 2.889e-03    9.270e-04    1.571e-04    4.309e+00    1.571e+00   /
#      CHEB/ 1.488e-01    -2.668e-04   -1.567e-02   -3.935e-03   5.725e-04   /
#      CHEB/ 1.878e-04    -9.232e-02   4.064e-01    5.414e-02    2.617e-02   /
#      CHEB/ 7.925e-04    -4.246e-03   -1.037e-03   6.041e-04    -5.708e-01  /
#      CHEB/ 2.100e-01    4.900e-03    5.380e-03    4.931e-03    3.392e-04   /
#      CHEB/ -1.202e-03   -5.235e-04   -1.440e-01   1.251e-02    1.752e-02   /
#      CHEB/ 1.787e-03    -1.298e-04   9.648e-04    2.643e-04    -2.975e-04  /
#      CHEB/ 3.075e-02    -4.046e-02   6.749e-03    3.991e-03    -2.186e-04  /
#      CHEB/ -1.754e-04   1.821e-04    1.154e-04    2.783e-02    -1.885e-02  /
#      CHEB/ -3.364e-05   1.297e-03    5.275e-04    -4.133e-05   -9.936e-05  /
#      CHEB/ 3.256e-05    9.651e-03    -1.289e-02   2.212e-03    -3.847e-04  /
#      CHEB/ 1.597e-04    1.561e-04    -1.771e-05   -3.459e-05   2.675e-04   /
#      CHEB/ -1.082e-02   2.256e-03    1.455e-06    -4.561e-05   -4.078e-06  /
#      CHEB/ 2.702e-05    -1.349e-06   -1.052e-03   -7.464e-03   -1.806e-04  /
#      CHEB/ 7.849e-05    1.050e-04    -1.537e-05   6.117e-06    6.676e-06   /

# Reaction 8
chebyshev_reaction('bQOOH[O] (+ M) <=> bQOOHa (+ M)',
                   Tmin=180.0, Tmax=1500.0,
                   Pmin=(0.01, 'atm'), Pmax=(98.692, 'atm'),
                   coeffs=[[ 6.82200e-01,  1.88100e+00, -2.84300e-01, -1.07800e-01, -2.07900e-02,  3.62000e-03,  4.01500e-03,  9.87300e-04],
                           [ 2.35800e+00,  9.30300e-01,  1.52600e-01,  5.01600e-02,  5.81900e-04, -9.01300e-03, -4.32900e-03, -3.23000e-04],
                           [-2.53500e-01,  4.52600e-01,  1.65900e-02,  1.23000e-02,  7.46100e-03,  1.66000e-03, -5.89200e-04, -7.04200e-04],
                           [-5.92200e-01,  2.41800e-01,  1.42800e-02,  1.61600e-03,  8.86700e-04,  3.66600e-04,  2.33700e-04,  5.32600e-05],
                           [-2.61700e-01,  9.03400e-02,  1.26500e-02,  2.05200e-03,  3.44200e-04,  3.49800e-05, -1.03000e-05, -2.82700e-05],
                           [-5.26700e-02,  1.90300e-02,  6.30200e-03,  1.95200e-03,  1.97800e-04,  1.31600e-04,  4.89600e-05, -1.36700e-05],
                           [-8.45800e-03, -1.09600e-03,  3.03800e-04,  1.01200e-03,  1.37800e-04,  1.52100e-04,  7.40300e-05,  1.59900e-05],
                           [-7.44300e-03,  1.93800e-03,  9.82200e-05,  4.01600e-04, -1.19900e-04, -7.57700e-05,  4.90800e-06,  3.44000e-05],
                           [-1.29900e-02,  3.36200e-04, -3.26900e-04, -6.48600e-05, -6.92800e-07, -1.10200e-05, -6.67900e-06,  1.34300e-06],
                           [-9.63200e-03, -2.21100e-03, -3.43500e-04, -1.07100e-04,  1.93800e-05,  2.27000e-05,  4.33200e-06, -6.13000e-06]])

# Reaction 9
chebyshev_reaction('O2 + bR (+ M) <=> bQOOHa (+ M)',
                   Tmin=180.0, Tmax=1500.0,
                   Pmin=(0.01, 'atm'), Pmax=(98.692, 'atm'),
                   coeffs=[[ 8.41100e+00,  6.87600e-01, -1.47600e-01, -2.76800e-02, -1.15600e-02, -2.46000e-03,  1.08700e-04,  3.49700e-04],
                           [-3.86000e-01,  1.05400e+00,  3.73700e-02,  6.96800e-03,  7.05200e-03,  6.54400e-04, -8.24700e-04, -5.27900e-04],
                           [-4.27600e-01,  2.88000e-01,  6.04700e-02, -1.80100e-04, -3.76500e-04,  7.19500e-04,  3.82000e-04,  4.85100e-05],
                           [-2.06500e-01, -1.86300e-03,  2.91400e-02,  6.16800e-03, -2.17700e-04, -2.74400e-04,  6.00400e-05,  7.34800e-05],
                           [-2.18300e-02, -2.97300e-02,  4.28500e-03,  3.58600e-03,  7.04800e-04, -2.29400e-05, -7.36600e-05, -7.82100e-06],
                           [ 2.64000e-02, -9.75600e-03,  2.37000e-04,  7.77200e-04,  2.13200e-04,  1.04300e-04,  6.49400e-06, -1.12600e-05],
                           [ 1.47500e-02, -4.31700e-03,  1.19800e-03,  6.47900e-04, -1.69000e-05, -2.60100e-05,  8.90100e-06,  4.42100e-06],
                           [ 1.54300e-03, -6.55200e-03, -1.03700e-04,  6.11300e-04,  1.45500e-04, -2.79600e-05, -9.48100e-06,  2.10600e-06],
                           [-2.54500e-03, -5.29000e-03, -1.32000e-03,  2.67500e-04,  1.94000e-04,  1.43000e-05, -1.32700e-05, -5.69300e-06],
                           [-1.10300e-03, -3.46700e-03, -1.80000e-03, -2.24700e-04,  7.78700e-05,  4.02000e-05,  9.48800e-06,  4.99900e-07]])
#  bRO2(+M) <=> bQOOH[O](+M)                           1.000e+00 0.000     0.000
#      TCHEB/ 180.000   1500.000 /
#      PCHEB/ 0.010     98.692   /
#      CHEB/ 10 8/
#      CHEB/ -3.313e+00   1.866e+00    -1.674e-01   -6.357e-02   -1.156e-02  /
#      CHEB/ 2.720e-03    2.602e-03    6.339e-04    9.533e+00    4.040e-01   /
#      CHEB/ 5.948e-02    1.452e-02    -3.682e-03   -5.091e-03   -1.789e-03  /
#      CHEB/ 1.938e-04    -5.447e-01   2.382e-01    9.410e-03    5.757e-03   /
#      CHEB/ 2.835e-03    5.851e-06    -7.592e-04   -4.362e-04   -3.787e-01  /
#      CHEB/ 1.701e-01    9.370e-03    1.991e-03    1.060e-03    1.194e-04   /
#      CHEB/ -1.542e-04   -1.267e-04   -2.470e-01   1.016e-01    9.287e-03   /
#      CHEB/ 1.210e-03    6.428e-04    1.066e-04    -7.100e-05   -6.411e-05  /
#      CHEB/ -1.490e-01   5.063e-02    8.007e-03    7.841e-04    2.760e-04   /
#      CHEB/ 1.065e-04    5.469e-06    -2.378e-05   -7.928e-02   1.789e-02   /
#      CHEB/ 4.917e-03    5.296e-04    1.322e-04    1.203e-04    4.094e-05   /
#      CHEB/ -2.701e-06   -4.020e-02   4.156e-03    2.761e-03    4.004e-04   /
#      CHEB/ -5.915e-05   2.551e-05    3.757e-05    1.910e-05    -1.657e-02  /
#      CHEB/ -1.612e-03   4.634e-04    2.292e-04    1.170e-05    2.152e-05   /
#      CHEB/ 1.715e-05    9.872e-06    -7.128e-03   -1.166e-03   -1.401e-04  /
#      CHEB/ 6.537e-05    -3.397e-05   -2.295e-05   6.337e-06    1.127e-05   /
#  bQOOHg(+M) <=> bQOOH[O](+M)                         1.000e+00 0.000     0.000
#      TCHEB/ 180.000   1500.000 /
#      PCHEB/ 0.010     98.692   /
#      CHEB/ 10 8/
#      CHEB/ -1.044e+00   1.482e+00    -4.049e-01   -9.817e-02   -4.982e-03  /
#      CHEB/ 6.319e-03    2.599e-03    3.359e-04    3.158e+00    1.469e+00   /
#      CHEB/ 1.446e-01    -1.789e-02   -2.303e-02   -5.544e-03   6.007e-04   /
#      CHEB/ 6.414e-04    -3.074e-01   4.576e-01    8.394e-02    3.614e-02   /
#      CHEB/ -1.571e-03   -7.427e-03   -2.249e-03   4.312e-04    -6.477e-01  /