units(length='cm', time='s', quantity='mol', act_energy='kcal/mol')

ideal_gas(name='gas',
          elements="H D T C Ci O Oi N Ne Ar He Si S F Cl Br I X",
          species="""propene3ol       OH               disub_c4ether
                     H2O              disub_epoxy      gQOOHa
                     propene1ol       gQOOHb           ipropylOOH
                     galdoxy          galkene          CH2O
                     O2               gRO2             gQOOHg
                     gR               galdol           monosub_c4ether
                     HO2              gQOOH[O]""",
          reactions='all',
          initial_state=state(temperature=300.0, pressure=OneAtm))

#-------------------------------------------------------------------------------
# Element data
#-------------------------------------------------------------------------------

element(symbol='Ci', atomic_mass=13.003)
element(symbol='D', atomic_mass=2.014)
element(symbol='Oi', atomic_mass=18.0)
element(symbol='T', atomic_mass=3.016)
element(symbol='X', atomic_mass=195.083)
#-------------------------------------------------------------------------------
# Species data
#-------------------------------------------------------------------------------

species(name='propene3ol',
        atoms='C:3 H:6 O:1',
        thermo=(NASA([10.00, 444.81],
                     [ 3.92769709E+00,  4.89977303E-03,  1.13094874E-04,
                      -2.59008187E-07,  1.86205760E-10, -1.79715353E+04,
                       9.90805416E+00]),
                NASA([444.81, 3000.00],
                     [ 2.61720343E+00,  3.01777872E-02, -1.76511625E-05,
                       5.14864061E-09, -5.91153761E-13, -1.79884358E+04,
                       1.36683107E+01])))

species(name='OH',
        atoms='H:1 O:1',
        thermo=(NASA([10.00, 984.14],
                     [ 3.49686242E+00,  1.83973160E-04, -9.97634499E-07,
                       1.56942783E-09, -6.10128175E-13,  3.41673934E+03,
                       1.48093120E+00]),
                NASA([984.14, 3000.00],
                     [ 3.45221464E+00, -2.95124034E-04,  7.39418622E-07,
                      -2.89309866E-10,  3.53041498E-14,  3.45751599E+03,
                       1.85813897E+00])))

species(name='disub_c4ether',
        atoms='C:4 H:8 O:2',
        thermo=(NASA([10.00, 413.50],
                     [ 3.78241323E+00,  1.89501763E-02,  8.65302396E-05,
                      -1.80580575E-07,  1.13656264E-10, -3.79749464E+04,
                       1.09982450E+01]),
                NASA([413.50, 3000.00],
                     [ 4.29420885E-01,  5.13851903E-02, -3.11292293E-05,
                       9.11498284E-09, -1.03192718E-12, -3.76976520E+04,
                       2.42134976E+01])))

species(name='H2O',
        atoms='H:2 O:1',
        thermo=(NASA([10.00, 773.84],
                     [ 4.00473541E+00, -2.39729134E-04,  8.11862955E-07,
                       1.47891862E-09, -1.19783539E-12, -3.03533807E+04,
                      -9.96254147E-02]),
                NASA([773.84, 3000.00],
                     [ 3.52133374E+00,  1.05377009E-03,  6.40722099E-07,
                      -3.86240235E-10,  5.49243294E-14, -3.02424794E+04,
                       2.34173094E+00])))

species(name='disub_epoxy',
        atoms='C:4 H:8 O:2',
        thermo=(NASA([10.00, 549.41],
                     [ 3.89863211E+00,  5.97532637E-03,  1.66685676E-04,
                      -3.10743768E-07,  1.78330192E-10, -3.41267460E+04,
                       1.13847308E+01]),
                NASA([549.41, 3000.00],
                     [-6.40277648E-01,  6.05960003E-02, -4.13427220E-05,
                       1.31555461E-08, -1.57685017E-12, -3.39536291E+04,
                       2.76005436E+01])))

species(name='gQOOHa',
        atoms='C:4 H:9 O:3',
        thermo=(NASA([10.00, 160.74],
                     [ 3.80808147E+00,  2.31043884E-02,  5.26945984E-04,
                      -3.11500696E-06,  6.03881958E-09, -2.58565161E+04,
                       1.17645316E+01]),
                NASA([160.74, 3000.00],
                     [ 2.90630300E+00,  6.50241173E-02, -4.60073244E-05,
                       1.51330930E-08, -1.87074267E-12, -2.58526915E+04,
                       1.36838819E+01])))

species(name='propene1ol',
        atoms='C:3 H:6 O:1',
        thermo=(NASA([10.00, 459.42],
                     [ 3.91245344E+00,  5.85800161E-03,  1.15412006E-04,
                      -2.68014417E-07,  1.91800131E-10, -2.05089406E+04,
                       8.14807684E+00]),
                NASA([459.42, 3000.00],
                     [ 3.14049093E+00,  2.95550898E-02, -1.73843684E-05,
                       5.11506211E-09, -5.92966137E-13, -2.06171632E+04,
                       9.32215170E+00])))

species(name='gQOOHb',
        atoms='C:4 H:9 O:3',
        thermo=(NASA([10.00, 1018.67],
                     [ 3.99028351E+00,  4.29665712E-02,  2.28338778E-05,
                      -5.67914439E-08,  2.29383258E-11, -2.43134223E+04,
                       1.20326731E+01]),
                NASA([1018.67, 3000.00],
                     [ 1.38304153E+01,  3.88527019E-02, -2.19473905E-05,
                       5.78719895E-09, -5.85097740E-13, -2.81095071E+04,
                      -4.44147388E+01])))

species(name='ipropylOOH',
        atoms='C:3 H:7 O:2',
        thermo=(NASA([10.00, 405.01],
                     [ 3.30075623E+00,  7.58672756E-02, -3.35754269E-04,
                       8.05972164E-07, -6.68864582E-10, -4.53193010E+02,
                       1.43372849E+01]),
                NASA([405.01, 3000.00],
                     [ 2.51742509E+00,  3.72760950E-02, -2.12450220E-05,
                       5.83593926E-09, -6.22110649E-13, -9.78540348E+00,
                       2.20991392E+01])))

species(name='galdoxy',
        atoms='C:4 H:7 O:2',
        thermo=(NASA([10.00, 209.62],
                     [ 3.82641108E+00,  1.84758886E-02,  3.43073800E-04,
                      -1.82817005E-06,  2.98516720E-09, -1.78554060E+04,
                       1.17972706E+01]),
                NASA([209.62, 3000.00],
                     [ 4.22049016E+00,  4.03370149E-02, -2.36129482E-05,
                       6.72979114E-09, -7.47862493E-13, -1.79364758E+04,
                       8.97211724E+00])))

species(name='galkene',
        atoms='C:4 H:8 O:1',
        thermo=(NASA([10.00, 383.47],
                     [ 3.84035604E+00,  1.20378740E-02,  1.87486319E-04,
                      -5.44759148E-07,  4.80711015E-10, -2.19839240E+04,
                       1.02570291E+01]),
                NASA([383.47, 3000.00],
                     [ 4.00413385E+00,  3.79025144E-02, -2.15435710E-05,
                       6.15213311E-09, -6.97446345E-13, -2.21992133E+04,
                       6.98052628E+00])))

species(name='CH2O',
        atoms='C:1 H:2 O:1',
        thermo=(NASA([10.00, 601.31],
                     [ 4.03190845E+00, -1.93233367E-03,  8.89743345E-06,
                       2.98105926E-09, -7.90813886E-12, -1.42276270E+04,
                       3.47574660E+00]),
                NASA([601.31, 3000.00],
                     [ 1.40134195E+00,  9.48858016E-03, -4.43088317E-06,
                       9.48452194E-10, -7.43790219E-14, -1.38013869E+04,
                       1.57423780E+01])))

species(name='O2',
        atoms='O:2',
        thermo=(NASA([10.00, 605.96],
                     [ 3.50743498E+00, -4.43860349E-04,  1.45938058E-06,
                       1.61509333E-09, -2.32050052E-12, -9.24756224E+02,
                       4.72183634E+00]),
                NASA([605.96, 3000.00],
                     [ 2.87462882E+00,  2.17840991E-03, -1.18262921E-06,
                       2.86910493E-10, -2.53297146E-14, -8.19517838E+02,
                       7.69331810E+00])))

species(name='gRO2',
        atoms='C:4 H:9 O:3',
        thermo=(NASA([10.00, 177.33],
                     [ 3.70632176E+00,  3.49733664E-02,  4.64036392E-04,
                      -3.18637835E-06,  6.38178607E-09, -2.72948008E+04,
                       1.24459269E+01]),
                NASA([177.33, 3000.00],
                     [ 4.82062697E+00,  5.17179689E-02, -3.18386818E-05,
                       9.52247045E-09, -1.10180288E-12, -2.74001713E+04,
                       7.14082953E+00])))

species(name='gQOOHg',
        atoms='C:4 H:9 O:3',
        thermo=(NASA([10.00, 475.03],
                     [ 3.42273720E+00,  4.98344215E-02,  6.47820920E-05,
                      -2.49842966E-07,  1.98636537E-10, -2.16645147E+04,
                       1.41578583E+01]),
                NASA([475.03, 3000.00],
                     [ 5.94049074E+00,  5.53778585E-02, -3.71708255E-05,
                       1.17540477E-08, -1.40812095E-12, -2.22054690E+04,
                       7.09201218E-01])))

species(name='gR',
        atoms='C:4 H:9 O:1',
        thermo=(NASA([10.00, 638.24],
                     [ 3.37074633E+00,  5.17529751E-02, -6.54872940E-05,
                       6.88084237E-08, -3.21569794E-11, -1.17765480E+04,
                       1.14339669E+01]),
                NASA([638.24, 3000.00],
                     [ 3.99410860E+00,  4.06314915E-02, -2.23932510E-05,
                       6.08356263E-09, -6.49884708E-13, -1.17091733E+04,
                       9.85769960E+00])))

species(name='galdol',
        atoms='C:4 H:8 O:2',
        thermo=(NASA([10.00, 506.68],
                     [ 3.85380874E+00,  9.21272695E-03,  1.86712348E-04,
                      -3.96417049E-07,  2.55528268E-10, -4.73260080E+04,
                       1.24312743E+01]),
                NASA([506.68, 3000.00],
                     [ 1.49710213E+00,  5.65979142E-02, -3.87709084E-05,
                       1.23682052E-08, -1.48287964E-12, -4.74566174E+04,
                       1.85531759E+01])))

species(name='monosub_c4ether',
        atoms='C:4 H:8 O:2',
        thermo=(NASA([10.00, 380.36],
                     [ 3.47743996E+00,  6.08051311E-02, -2.78518945E-04,
                       8.23182713E-07, -7.87158031E-10, -3.45712648E+04,
                       1.06415154E+01]),
                NASA([380.36, 3000.00],
                     [-1.09346901E+00,  5.35985968E-02, -3.21081420E-05,
                       9.20818293E-09, -1.01830294E-12, -3.38237047E+04,
                       3.35312368E+01])))

species(name='HO2',
        atoms='H:1 O:2',
        thermo=(NASA([10.00, 891.11],
                     [ 4.02887004E+00, -1.75769289E-03,  1.08726004E-05,
                      -1.13812972E-08,  3.90113097E-12,  4.95165001E+02,
                       4.69302008E+00]),
                NASA([891.11, 3000.00],
                     [ 3.06571044E+00,  4.28505005E-03, -2.19325920E-06,
                       5.58882699E-10, -5.61246669E-14,  5.98557610E+02,
                       8.84564156E+00])))

species(name='gQOOH[O]',
        atoms='C:4 H:9 O:3',
        thermo=(NASA([10.00, 535.23],
                     [ 3.83107445E+00,  1.02302002E-02,  2.29377261E-04,
                      -4.59095575E-07,  2.77765018E-10, -1.84594070E+04,
                       1.41034859E+01]),
                NASA([535.23, 3000.00],
                     [-4.19283096E-01,  7.69784620E-02, -5.57279000E-05,
                       1.81378295E-08, -2.18295635E-12, -1.85055203E+04,
                       2.72711816E+01])))

#-------------------------------------------------------------------------------
# Reaction data
#-------------------------------------------------------------------------------

# Reaction 1
chebyshev_reaction('gQOOH[O] (+ M) <=> gRO2 (+ M)',
                   Tmin=180.0, Tmax=1500.0,
                   Pmin=(0.01, 'atm'), Pmax=(98.692, 'atm'),
                   coeffs=[[ 4.68400e+00,  1.91600e+00, -1.06100e-01, -2.83000e-02, -3.30700e-03,  2.55200e-03,  1.07100e-03, -1.49700e-04],
                           [-6.33600e+00,  7.35300e-01,  1.57300e-01,  1.89600e-02, -7.97100e-03, -3.07600e-03, -1.35900e-04,  3.55100e-04],
                           [-3.69000e+00,  9.22000e-02, -3.34200e-02, -4.59800e-03,  3.03700e-03,  3.18000e-03,  5.01900e-04, -4.07500e-04],
                           [-1.99300e+00,  1.48500e-01,  1.52100e-02, -1.29300e-02, -6.63700e-03, -2.80700e-04,  8.24100e-04,  4.22000e-04],
                           [-1.14200e+00,  7.75600e-02,  6.15700e-02,  1.44100e-02,  2.78700e-04, -2.19400e-03, -1.14600e-03, -2.82100e-05],
                           [-6.66900e-01, -4.22300e-02,  4.20200e-02,  1.34100e-02,  3.05400e-03, -9.98400e-05, -3.33600e-04,  1.71100e-05],
                           [-3.22400e-01, -1.31100e-01,  1.67500e-02,  1.16500e-02,  8.79100e-04, -1.17700e-03, -2.00800e-04,  3.11300e-04],
                           [-1.70700e-01, -1.04400e-01,  1.12100e-02,  1.17400e-02, -4.38200e-05, -1.83800e-03, -6.07000e-04,  9.30900e-05],
                           [-3.19300e-02, -1.02400e-01, -9.62200e-03,  1.15100e-02,  1.48800e-03, -9.02300e-04, -3.70100e-04, -7.05200e-05],
                           [ 3.94200e-02, -6.88200e-02, -3.03200e-02,  2.14900e-03,  1.18900e-03,  5.47600e-04,  3.14000e-04, -2.34200e-05]])

# Reaction 2
chebyshev_reaction('gQOOHa (+ M) <=> gRO2 (+ M)',
                   Tmin=180.0, Tmax=1500.0,
                   Pmin=(0.01, 'atm'), Pmax=(98.692, 'atm'),
                   coeffs=[[ 1.11700e+00,  8.23600e-01,  1.12000e-02,  8.77900e-04, -2.57300e-03,  1.83700e-04,  2.22700e-04,  4.70900e-05],
                           [-2.05400e+00,  1.33500e+00,  5.70700e-02, -2.42000e-03, -3.45600e-03, -4.69300e-06,  4.43900e-04,  4.09300e-06],
                           [-3.95500e+00,  6.38600e-01,  1.09100e-01, -3.88200e-03, -1.74900e-03, -3.04900e-04,  2.05800e-04, -1.10500e-04],
                           [-2.40600e+00,  2.84200e-02,  1.06500e-01,  5.02700e-03, -1.67500e-03, -5.74400e-04, -1.70100e-04, -8.40500e-05],
                           [-1.22900e+00, -2.12500e-01,  4.83500e-02,  1.52400e-02, -1.55700e-03, -1.24400e-03, -4.09800e-04,  1.24600e-04],
                           [-5.02400e-01, -1.53900e-01, -2.75400e-03,  1.44300e-02, -3.54200e-04, -1.97600e-03, -3.86500e-04,  3.74400e-04],
                           [-1.77600e-01, -3.95500e-02, -4.79900e-03,  5.79000e-03,  1.80900e-04, -1.91300e-03, -1.91900e-04,  4.37100e-04],
                           [-1.03600e-01, -2.33300e-02,  1.91100e-02,  2.89900e-03, -9.66600e-04, -1.04400e-03,  8.33000e-06,  2.20300e-04],
                           [-3.87500e-02, -8.07100e-02,  2.07900e-02,  9.65800e-03, -1.50100e-03, -3.08300e-04,  6.12900e-05, -1.01200e-04],
                           [-2.88700e-02, -1.10900e-01, -1.20700e-02,  1.47600e-02,  8.50800e-04, -1.77200e-04, -8.47000e-05, -2.49900e-04]])

# Reaction 3
chebyshev_reaction('gQOOHg (+ M) <=> gRO2 (+ M)',
                   Tmin=180.0, Tmax=1500.0,
                   Pmin=(0.01, 'atm'), Pmax=(98.692, 'atm'),
                   coeffs=[[ 3.34400e-01,  7.34100e-01, -3.79600e-02,  3.06100e-04, -5.03800e-05,  4.43400e-04,  4.00800e-05, -8.95800e-05],
                           [ 3.01800e+00,  1.26200e+00, -3.07200e-02, -4.87200e-03,  2.63700e-04,  7.27400e-04,  5.28500e-05, -1.50000e-04],
                           [-2.41700e+00,  7.76900e-01,  5.67300e-02, -1.01700e-02, -3.42100e-04,  4.45100e-04, -3.57800e-05, -6.68600e-05],
                           [-1.93500e+00,  2.77800e-01,  1.06200e-01, -2.55900e-03, -2.29300e-03, -1.43400e-04, -1.11100e-04,  4.43300e-05],
                           [-1.30100e+00, -5.54900e-02,  9.15600e-02,  1.22200e-02, -2.74300e-03, -1.23400e-03, -1.83900e-04,  1.66300e-04],
                           [-6.97800e-01, -1.97500e-01,  4.37600e-02,  2.01400e-02, -4.23600e-04, -2.14500e-03, -3.56000e-04,  2.61400e-04],
                           [-3.52400e-01, -2.09300e-01,  1.26800e-03,  1.68300e-02,  2.15800e-03, -2.00200e-03, -5.37600e-04,  2.55900e-04],
                           [-1.17500e-01, -1.59700e-01, -2.06100e-02,  8.33500e-03,  2.40100e-03, -9.62700e-04, -4.61900e-04,  1.30800e-04],
                           [ 3.42300e-03, -9.38500e-02, -2.59500e-02,  1.45100e-03,  6.02700e-04,  5.79100e-05, -7.14000e-05, -2.28100e-05],
                           [ 4.71600e-02, -3.44300e-02, -2.37100e-02, -1.87000e-03, -1.08100e-03,  5.06300e-04,  3.53400e-04, -1.02100e-04]])

# Reaction 4
chebyshev_reaction('gQOOHb (+ M) <=> gRO2 (+ M)',
                   Tmin=180.0, Tmax=1500.0,
                   Pmin=(0.01, 'atm'), Pmax=(98.692, 'atm'),
                   coeffs=[[-8.13200e-01,  1.01700e+00,  4.14500e-02, -1.57500e-02, -3.50800e-03,  8.05100e-04,  3.25400e-04, -1.03200e-04],
                           [ 1.49500e+00,  1.63500e+00,  1.05500e-01, -2.39400e-02, -5.42600e-03,  8.34800e-04,  4.72200e-04, -1.41900e-04],
                           [-2.70700e+00,  8.12700e-01,  1.12200e-01,  3.15300e-04, -3.01100e-03, -5.48300e-04,  4.10000e-05, -1.11600e-06],
                           [-1.86500e+00,  1.54600e-01,  6.97700e-02,  1.98000e-02,  4.29200e-04, -1.62600e-03, -3.42300e-04,  1.34000e-04],
                           [-1.19400e+00, -1.23700e-01,  2.31100e-02,  1.94300e-02,  2.32800e-03, -1.64500e-03, -4.78500e-04,  2.13200e-04],
                           [-6.60800e-01, -1.56000e-01,  7.98200e-03,  1.03800e-02,  6.44300e-04, -1.31100e-03, -3.22300e-04,  2.47200e-04],
                           [-3.02900e-01, -1.25900e-01,  1.12500e-02,  7.61800e-03, -1.82200e-03, -1.51400e-03, -1.47500e-04,  2.57400e-04],
                           [-1.18100e-01, -1.07400e-01,  7.80200e-03,  1.09600e-02, -1.79900e-03, -1.75600e-03, -1.65000e-04,  1.95100e-04],
                           [-1.41500e-02, -9.20800e-02, -7.13400e-03,  1.19600e-02,  3.24500e-04, -1.20700e-03, -2.12200e-04,  4.14000e-05],
                           [ 3.80900e-02, -6.07800e-02, -2.37600e-02,  7.10400e-03,  2.16100e-03, -1.12300e-05, -9.12000e-05, -1.19100e-04]])

# Reaction 5
chebyshev_reaction('O2 + gR (+ M) <=> gRO2 (+ M)',
                   Tmin=180.0, Tmax=1500.0,
                   Pmin=(0.01, 'atm'), Pmax=(98.692, 'atm'),
                   coeffs=[[ 1.00500e+01,  4.38500e-01, -4.77900e-02,  6.39100e-03, -1.32800e-03,  5.83400e-04,  1.20600e-04, -9.37600e-05],
                           [-2.06200e+00,  8.02000e-01, -7.28600e-02,  6.47100e-03, -7.05800e-04,  5.60900e-04,  3.04500e-04, -1.86100e-04],
                           [-1.46400e+00,  6.17400e-01, -2.55800e-02, -3.38500e-03,  1.61200e-03, -5.37400e-05,  1.69300e-04, -1.02800e-04],
                           [-1.08200e+00,  3.85600e-01,  2.11600e-02, -9.16000e-03,  2.31800e-03, -3.09700e-04, -1.04600e-04,  2.29700e-05],
                           [-7.61100e-01,  1.67400e-01,  4.91000e-02, -7.84100e-03,  1.28000e-03, -3.62800e-04, -3.25500e-04,  1.28300e-04],
                           [-4.86300e-01,  2.38200e-03,  5.31400e-02, -1.57600e-03, -3.26500e-04, -4.94300e-04, -3.59000e-04,  1.78300e-04],
                           [-2.67600e-01, -9.42600e-02,  3.84900e-02,  5.32400e-03, -1.36100e-03, -7.29400e-04, -2.19700e-04,  1.74100e-04],
                           [-1.12100e-01, -1.26500e-01,  1.48300e-02,  9.32400e-03, -1.42800e-03, -8.50600e-04, -1.45400e-05,  1.29400e-04],
                           [-1.68700e-02, -1.10600e-01, -8.28700e-03,  8.94700e-03, -7.60700e-04, -6.48900e-04,  1.56000e-04,  5.53500e-05],
                           [ 2.89700e-02, -6.79500e-02, -2.40900e-02,  4.74500e-03,  1.73600e-04, -1.04900e-04,  2.41100e-04, -3.40200e-05]])
#  gRO2(+M) <=> gQOOH[O](+M)                           1.000e+00 0.000     0.000
#      TCHEB/ 180.000   1500.000 /
#      PCHEB/ 0.010     98.692   /
#      CHEB/ 10 8/
#      CHEB/ -7.739e+00   1.916e+00    -1.061e-01   -2.830e-02   -3.307e-03  /
#      CHEB/ 2.552e-03    1.071e-03    -1.497e-04   2.780e+00    7.353e-01   /
#      CHEB/ 1.573e-01    1.896e-02    -7.971e-03   -3.076e-03   -1.359e-04  /
#      CHEB/ 3.551e-04    -3.517e+00   9.220e-02    -3.342e-02   -4.598e-03  /
#      CHEB/ 3.037e-03    3.180e-03    5.019e-04    -4.075e-04   -1.869e+00  /
#      CHEB/ 1.485e-01    1.521e-02    -1.293e-02   -6.637e-03   -2.807e-04  /
#      CHEB/ 8.241e-04    4.220e-04    -1.089e+00   7.756e-02    6.157e-02   /
#      CHEB/ 1.441e-02    2.787e-04    -2.194e-03   -1.146e-03   -2.821e-05  /
#      CHEB/ -6.479e-01   -4.223e-02   4.202e-02    1.341e-02    3.054e-03   /
#      CHEB/ -9.984e-05   -3.336e-04   1.711e-05    -3.162e-01   -1.311e-01  /
#      CHEB/ 1.675e-02    1.165e-02    8.791e-04    -1.177e-03   -2.008e-04  /
#      CHEB/ 3.113e-04    -1.687e-01   -1.044e-01   1.121e-02    1.174e-02   /
#      CHEB/ -4.382e-05   -1.838e-03   -6.070e-04   9.309e-05    -3.147e-02  /
#      CHEB/ -1.024e-01   -9.622e-03   1.151e-02    1.488e-03    -9.023e-04  /
#      CHEB/ -3.701e-04   -7.052e-05   3.939e-02    -6.882e-02   -3.032e-02  /
#      CHEB/ 2.149e-03    1.189e-03    5.476e-04    3.140e-04    -2.342e-05  /

# Reaction 6
chebyshev_reaction('gQOOHa (+ M) <=> gQOOH[O] (+ M)',
                   Tmin=180.0, Tmax=1500.0,
                   Pmin=(0.01, 'atm'), Pmax=(98.692, 'atm'),
                   coeffs=[[-1.15300e+01,  7.98000e-01, -1.06700e-01, -3.18700e-02, -1.34900e-02,  3.15200e-03,  1.60700e-03,  2.61300e-04],
                           [ 2.95700e-01,  1.59100e+00,  1.81800e-01,  4.19500e-02, -9.65900e-03, -8.38600e-03,  1.17200e-04,  9.07700e-04],
                           [-4.59600e+00,  1.95700e-01, -1.33400e-02,  2.14200e-03,  1.21800e-02,  2.50100e-03,  2.99800e-04, -5.13300e-04],
                           [-2.34100e+00, -9.14300e-02,  3.43900e-02, -1.32300e-02, -4.69000e-03,  7.35000e-04,  1.20700e-03,  4.35100e-04],
                           [-1.04500e+00, -1.52100e-01,  5.05600e-02,  2.42200e-02, -4.04400e-03, -3.08200e-03, -8.19900e-04,  2.61100e-04],
                           [-4.43000e-01, -8.32100e-02,  5.89300e-03,  2.48000e-02, -3.15400e-04, -2.86700e-03, -1.47100e-04,  4.91100e-04],
                           [-1.96800e-01, -3.47800e-02, -6.18400e-04,  1.30200e-02,  3.08900e-04, -3.69200e-03, -1.66700e-04,  8.37800e-04],
                           [-1.77300e-01, -1.46800e-02,  3.04400e-02,  8.59200e-03, -1.15100e-04, -2.92800e-03, -6.02000e-04,  3.67400e-04],
                           [-9.20100e-02, -1.09400e-01,  2.24400e-02,  1.46800e-02,  1.20300e-03, -9.36800e-04, -5.21800e-04, -9.23000e-05],
                           [-9.27400e-04, -1.41400e-01, -2.24300e-02,  1.28400e-02,  2.49800e-03,  3.22400e-04, -6.71000e-05, -1.31000e-04]])

# Reaction 7
chebyshev_reaction('gQOOHg (+ M) <=> gQOOH[O] (+ M)',
                   Tmin=180.0, Tmax=1500.0,
                   Pmin=(0.01, 'atm'), Pmax=(98.692, 'atm'),
                   coeffs=[[-9.98700e+00,  1.46300e+00, -3.40400e-02, -1.31400e-01, -2.92600e-02,  1.23300e-02,  4.64400e-03, -8.30300e-04],
                           [ 2.38500e+00,  6.52900e-01,  1.17200e-01,  1.50500e-01, -2.00000e-04, -2.39400e-02, -3.32800e-03,  3.34800e-03],
                           [-2.52800e+00,  2.11900e-01, -1.69800e-01, -2.71400e-02,  3.40900e-02,  1.70700e-02, -2.01400e-03, -4.08300e-03],
                           [-1.66900e+00,  2.19000e-01,  3.02900e-02, -4.81800e-02, -1.01300e-02,  6.06500e-03,  3.16200e-03,  1.39600e-04],
                           [-1.08500e+00,  6.46200e-02,  1.49800e-01,  6.79900e-03, -1.73400e-02, -3.59700e-03,  1.45700e-03,  8.65300e-04],
                           [-6.63600e-01, -1.40000e-01,  8.97300e-02,  3.35700e-02, -4.00300e-03, -4.55600e-03, -6.37700e-04,  5.80200e-04],
                           [-3.65200e-01, -2.23400e-01,  2.19200e-02,  2.75900e-02,  1.95400e-03, -3.12900e-03, -9.67800e-04,  2.20300e-04],
                           [-2.06900e-01, -1.60800e-01, -1.19000e-02,  1.72700e-02,  3.44700e-03, -1.38600e-03, -9.51200e-04, -2.70500e-04],
                           [-3.83600e-02, -1.29600e-01, -3.08200e-02,  6.52100e-03,  2.92100e-03,  7.03500e-04, -6.41000e-05, -3.36600e-04],
                           [ 5.01100e-02, -6.35000e-02, -3.94400e-02, -5.85200e-03, -7.77900e-04,  1.68300e-03,  1.13300e-03, -6.97300e-05]])

# Reaction 8
chebyshev_reaction('gQOOHb (+ M) <=> gQOOH[O] (+ M)',
                   Tmin=180.0, Tmax=1500.0,
                   Pmin=(0.01, 'atm'), Pmax=(98.692, 'atm'),
                   coeffs=[[-1.19500e+01,  1.20700e+00, -3.46100e-02, -6.61800e-02, -1.63200e-02,  3.00100e-03,  1.88500e-03,  1.88600e-04],
                           [ 1.84100e+00,  1.78000e+00,  2.37600e-01,  3.86900e-02, -8.57700e-03, -8.49400e-03, -1.49300e-03,  6.36900e-04],
                           [-2.93900e+00,  1.92300e-01, -6.57700e-02,  5.66000e-03,  1.93600e-02,  6.24500e-03, -5.87400e-04, -1.10100e-03],
                           [-1.69000e+00,  2.82300e-02, -2.62400e-02, -1.39500e-02, -2.24100e-03,  2.21300e-03,  1.37000e-03,  4.43800e-04],
                           [-9.93200e-01,  3.98700e-03,  4.67800e-02,  1.92400e-02, -3.02900e-03, -4.08400e-03, -1.11300e-03,  4.14300e-04],
                           [-6.14600e-01, -5.26300e-02,  4.15700e-02,  2.24200e-02,  7.17300e-04, -3.11400e-03, -9.11500e-04,  2.48400e-04],
                           [-3.29600e-01, -1.35600e-01,  2.19500e-02,  1.83200e-02,  1.37800e-03, -2.72100e-03, -8.89500e-04,  3.45600e-04],
                           [-2.00800e-01, -1.20300e-01,  1.22800e-02,  1.61900e-02,  1.78100e-03, -2.11300e-03, -1.02700e-03,  8.80300e-07],
                           [-4.89100e-02, -1.32200e-01, -1.10900e-02,  1.29900e-02,  3.55800e-03, -5.03600e-04, -6.71600e-04, -1.58600e-04],
                           [ 4.04400e-02, -9.31000e-02, -3.44200e-02,  1.49700e-03,  2.76100e-03,  1.05700e-03,  1.05100e-04, -9.25200e-05]])

# Reaction 9
chebyshev_reaction('O2 + gR (+ M) <=> gQOOH[O] (+ M)',
                   Tmin=180.0, Tmax=1500.0,
                   Pmin=(0.01, 'atm'), Pmax=(98.692, 'atm'),
                   coeffs=[[-3.72500e-02,  1.60100e+00,  1.37100e-01, -1.17800e-01, -7.78800e-02, -1.09300e-02,  9.84400e-03,  8.26400e-03],
                           [-3.03800e+00, -2.68400e-01, -1.62400e-01,  1.67200e-01,  6.78000e-02,  2.23400e-03, -1.34600e-02, -8.74600e-03],
                           [-1.56800e+00,  1.33800e-01, -2.59400e-01, -3.65000e-02,  2.62200e-02,  1.66000e-02,  3.01500e-03, -2.01000e-03],
                           [-8.01300e-01,  4.22900e-01, -4.47300e-02, -6.23300e-02, -1.35100e-02,  2.89600e-03,  4.79500e-03,  1.88300e-03],
                           [-5.74000e-01,  3.08600e-01,  1.02000e-01, -6.91600e-03, -9.21300e-03, -5.58900e-03, -1.16100e-03,  1.03600e-03],
                           [-4.64800e-01,  9.26200e-02,  9.68600e-02,  1.24300e-02, -1.07300e-03, -2.75900e-03, -1.48300e-03,  1.63400e-05],
                           [-2.96600e-01, -9.31700e-02,  5.30100e-02,  1.46800e-02,  1.04200e-03, -9.84100e-04, -7.39100e-04, -4.65800e-05],
                           [-2.13700e-01, -1.17300e-01,  1.91000e-02,  1.57900e-02,  1.08000e-03, -6.12300e-04, -4.79100e-04, -2.59000e-04],
                           [-6.62300e-02, -1.38800e-01, -1.55200e-02,  1.11800e-02,  2.04500e-03,  3.60900e-04,  1.46600e-04, -1.62000e-04],
                           [ 2.70300e-02, -9.27600e-02, -4.07400e-02, -1.62300e-03,  4.60500e-04,  1.22800e-03,  9.59600e-04,  1.01000e-04]])
#  gRO2(+M) <=> gQOOHa(+M)                             1.000e+00 0.000     0.000
#      TCHEB/ 180.000   1500.000 /
#      PCHEB/ 0.010     98.692   /
#      CHEB/ 10 8/
#      CHEB/ -1.135e+00   8.236e-01    1.120e-02    8.779e-04    -2.573e-03  /
#      CHEB/ 1.837e-04    2.227e-04    4.709e-05    -3.075e-01   1.335e+00   /
#      CHEB/ 5.707e-02    -2.420e-03   -3.456e-03   -4.693e-06   4.439e-04   /
#      CHEB/ 4.093e-06    -3.793e+00   6.386e-01    1.091e-01    -3.882e-03  /
#      CHEB/ -1.749e-03   -3.049e-04   2.058e-04    -1.105e-04   -2.332e+00  /
#      CHEB/ 2.842e-02    1.065e-01    5.027e-03    -1.675e-03   -5.744e-04  /
#      CHEB/ -1.701e-04   -8.405e-05   -1.201e+00   -2.125e-01   4.835e-02   /
#      CHEB/ 1.524e-02    -1.557e-03   -1.244e-03   -4.098e-04   1.246e-04   /
#      CHEB/ -4.926e-01   -1.539e-01   -2.754e-03   1.443e-02    -3.542e-04  /
#      CHEB/ -1.976e-03   -3.865e-04   3.744e-04    -1.746e-01   -3.955e-02  /
#      CHEB/ -4.799e-03   5.790e-03    1.809e-04    -1.913e-03   -1.919e-04  /
#      CHEB/ 4.371e-04    -1.029e-01   -2.333e-02   1.911e-02    2.899e-03   /
#      CHEB/ -9.666e-04   -1.044e-03   8.330e-06    2.203e-04    -3.876e-02  /
#      CHEB/ -8.071e-02   2.079e-02    9.658e-03    -1.501e-03   -3.083e-04  /
#      CHEB/ 6.129e-05    -1.012e-04   -2.899e-02   -1.109e-01   -1.207e-02  /
#      CHEB/ 1.476e-02    8.508e-04    -1.772e-04   -8.470e-05   -2.499e-04  /
#  gQOOH[O](+M) <=> gQOOHa(+M)                         1.000e+00 0.000     0.000
#      TCHEB/ 180.000   1500.000 /
#      PCHEB/ 0.010     98.692   /
#      CHEB/ 10 8/
#      CHEB/ -1.356e+00   7.980e-01    -1.067e-01   -3.187e-02   -1.349e-02  /
#      CHEB/ 3.152e-03    1.607e-03    2.613e-04    -7.073e+00   1.591e+00   /
#      CHEB/ 1.818e-01    4.195e-02    -9.659e-03   -8.386e-03   1.172e-04   /
#      CHEB/ 9.077e-04    -4.607e+00   1.957e-01    -1.334e-02   2.142e-03   /
#      CHEB/ 1.218e-02    2.501e-03    2.998e-04    -5.133e-04   -2.391e+00  /
#      CHEB/ -9.143e-02   3.439e-02    -1.323e-02   -4.690e-03   7.350e-04   /
#      CHEB/ 1.207e-03    4.351e-04    -1.070e+00   -1.521e-01   5.056e-02   /
#      CHEB/ 2.422e-02    -4.044e-03   -3.082e-03   -8.199e-04   2.611e-04   /
#      CHEB/ -4.522e-01   -8.321e-02   5.893e-03    2.480e-02    -3.154e-04  /
#      CHEB/ -2.867e-03   -1.471e-04   4.911e-04    -2.001e-01   -3.478e-02  /
#      CHEB/ -6.184e-04   1.302e-02    3.089e-04    -3.692e-03   -1.667e-04  /
#      CHEB/ 8.378e-04    -1.786e-01   -1.468e-02   3.044e-02    8.592e-03   /
#      CHEB/ -1.151e-04   -2.928e-03   -6.020e-04   3.674e-04    -9.248e-02  /
#      CHEB/ -1.094e-01   2.244e-02    1.468e-02    1.203e-03    -9.368e-04  /