units(length='cm', time='s', quantity='mol', act_energy='kcal/mol')

ideal_gas(name='gas',
          elements="H D T C Ci O Oi N Ne Ar He Si S F Cl Br I X",
          species="""OH             bQOOH[O]       acetone
                     H2O            balkoxyketone  ibutenol
                     trisub_epoxy   bQOOHg         CH2O
                     galkene        O2             bR
                     bQOOHa         bRO2           disub_epoxy
                     HO2""",
          reactions='all',
          initial_state=state(temperature=300.0, pressure=OneAtm))

#-------------------------------------------------------------------------------
# Element data
#-------------------------------------------------------------------------------

element(symbol='Ci', atomic_mass=13.003)
element(symbol='D', atomic_mass=2.014)
element(symbol='Oi', atomic_mass=18.0)
element(symbol='T', atomic_mass=3.016)
element(symbol='X', atomic_mass=195.083)
#-------------------------------------------------------------------------------
# Species data
#-------------------------------------------------------------------------------

species(name='OH',
        atoms='H:1 O:1',
        thermo=(NASA([10.00, 984.14],
                     [ 3.49686242E+00,  1.83973160E-04, -9.97634499E-07,
                       1.56942783E-09, -6.10128175E-13,  3.41673934E+03,
                       1.48093120E+00]),
                NASA([984.14, 3000.00],
                     [ 3.45221464E+00, -2.95124034E-04,  7.39418622E-07,
                      -2.89309866E-10,  3.53041498E-14,  3.45751599E+03,
                       1.85813897E+00])))

species(name='bQOOH[O]',
        atoms='C:4 H:9 O:3',
        thermo=(NASA([10.00, 338.69],
                     [ 3.60915854E+00,  3.39069566E-02,  2.22227265E-04,
                      -8.23527342E-07,  8.56246333E-10, -2.35390890E+04,
                       1.23284605E+01]),
                NASA([338.69, 3000.00],
                     [ 5.03198881E+00,  5.46235886E-02, -3.56935806E-05,
                       1.12371751E-08, -1.35390171E-12, -2.38506717E+04,
                       3.82760723E+00])))

species(name='acetone',
        atoms='C:3 H:6 O:1',
        thermo=(NASA([10.00, 414.35],
                     [ 3.73496166E+00,  3.05743218E-02, -1.26253585E-04,
                       3.66080978E-07, -3.31430437E-10, -2.72822193E+04,
                       8.24936012E+00]),
                NASA([414.35, 3000.00],
                     [ 1.70010292E-01,  3.28431468E-02, -1.80960132E-05,
                       4.82960690E-09, -5.02388538E-13, -2.67108362E+04,
                       2.56372653E+01])))

species(name='H2O',
        atoms='H:2 O:1',
        thermo=(NASA([10.00, 773.84],
                     [ 4.00473541E+00, -2.39729134E-04,  8.11862955E-07,
                       1.47891862E-09, -1.19783539E-12, -3.03533807E+04,
                      -9.96254147E-02]),
                NASA([773.84, 3000.00],
                     [ 3.52133374E+00,  1.05377009E-03,  6.40722099E-07,
                      -3.86240235E-10,  5.49243294E-14, -3.02424794E+04,
                       2.34173094E+00])))

species(name='balkoxyketone',
        atoms='C:4 H:7 O:2',
        thermo=(NASA([10.00, 269.93],
                     [ 3.81931151E+00,  1.68519318E-02,  2.42742224E-04,
                      -9.64821161E-07,  1.18509335E-09, -2.09992916E+04,
                       1.20521854E+01]),
                NASA([269.93, 3000.00],
                     [ 3.57555944E+00,  4.28868089E-02, -2.65390705E-05,
                       7.99659117E-09, -9.32983470E-13, -2.10678197E+04,
                       1.13957990E+01])))

species(name='ibutenol',
        atoms='C:4 H:8 O:1',
        thermo=(NASA([10.00, 135.97],
                     [ 3.95714996E+00,  5.72646980E-03,  4.63611760E-04,
                      -3.04137514E-06,  6.85019471E-09, -2.24971236E+04,
                       8.21931848E+00]),
                NASA([135.97, 3000.00],
                     [ 3.32467612E+00,  3.69033556E-02, -1.89960416E-05,
                       4.73417677E-09, -4.59705291E-13, -2.24915449E+04,
                       9.58133237E+00])))

species(name='trisub_epoxy',
        atoms='C:4 H:8 O:2',
        thermo=(NASA([10.00, 209.19],
                     [ 3.75295042E+00,  2.37546930E-02,  1.26610110E-04,
                      -4.78364365E-07,  5.79468168E-10, -4.26082782E+04,
                       1.12739684E+01]),
                NASA([209.19, 3000.00],
                     [ 2.64185254E+00,  4.50006531E-02, -2.57361066E-05,
                       7.15266054E-09, -7.72980731E-13, -4.25617926E+04,
                       1.48960343E+01])))

species(name='bQOOHg',
        atoms='C:4 H:9 O:3',
        thermo=(NASA([10.00, 441.09],
                     [ 3.56595280E+00,  3.36073467E-02,  2.03462772E-04,
                      -5.98977617E-07,  4.83271168E-10, -2.36422670E+04,
                       1.33537891E+01]),
                NASA([441.09, 3000.00],
                     [ 6.09031192E+00,  5.80517622E-02, -4.06392697E-05,
                       1.32574026E-08, -1.62501077E-12, -2.43254524E+04,
                      -1.97849715E+00])))

species(name='CH2O',
        atoms='C:1 H:2 O:1',
        thermo=(NASA([10.00, 601.31],
                     [ 4.03190845E+00, -1.93233367E-03,  8.89743345E-06,
                       2.98105926E-09, -7.90813886E-12, -1.42276270E+04,
                       3.47574660E+00]),
                NASA([601.31, 3000.00],
                     [ 1.40134195E+00,  9.48858016E-03, -4.43088317E-06,
                       9.48452194E-10, -7.43790219E-14, -1.38013869E+04,
                       1.57423780E+01])))

species(name='galkene',
        atoms='C:4 H:8 O:1',
        thermo=(NASA([10.00, 383.47],
                     [ 3.84035604E+00,  1.20378740E-02,  1.87486319E-04,
                      -5.44759148E-07,  4.80711015E-10, -2.13399827E+04,
                       1.02570291E+01]),
                NASA([383.47, 3000.00],
                     [ 4.00413385E+00,  3.79025144E-02, -2.15435710E-05,
                       6.15213311E-09, -6.97446345E-13, -2.15552720E+04,
                       6.98052628E+00])))

species(name='O2',
        atoms='O:2',
        thermo=(NASA([10.00, 605.96],
                     [ 3.50743498E+00, -4.43860349E-04,  1.45938058E-06,
                       1.61509333E-09, -2.32050052E-12, -9.24756224E+02,
                       4.72183634E+00]),
                NASA([605.96, 3000.00],
                     [ 2.87462882E+00,  2.17840991E-03, -1.18262921E-06,
                       2.86910493E-10, -2.53297146E-14, -8.19517838E+02,
                       7.69331810E+00])))

species(name='bR',
        atoms='C:4 H:9 O:1',
        thermo=(NASA([10.00, 483.43],
                     [ 3.38164846E+00,  5.97142637E-02, -1.58320095E-04,
                       3.04908893E-07, -2.13091806E-10, -1.33790241E+04,
                       1.09226843E+01]),
                NASA([483.43, 3000.00],
                     [ 2.33428824E+00,  4.22094427E-02, -2.28029290E-05,
                       6.04614564E-09, -6.30240159E-13, -1.29719422E+04,
                       1.83772893E+01])))

species(name='bQOOHa',
        atoms='C:4 H:9 O:3',
        thermo=(NASA([10.00, 390.53],
                     [ 3.54969236E+00,  3.76592474E-02,  1.76622653E-04,
                      -5.98063750E-07,  5.45069236E-10, -2.66014639E+04,
                       1.31518761E+01]),
                NASA([390.53, 3000.00],
                     [ 5.33564209E+00,  5.64935715E-02, -3.83214298E-05,
                       1.22990604E-08, -1.49549987E-12, -2.70240738E+04,
                       2.59015836E+00])))

species(name='bRO2',
        atoms='C:4 H:9 O:3',
        thermo=(NASA([10.00, 461.39],
                     [ 3.53964713E+00,  3.88723795E-02,  9.57420148E-05,
                      -2.80380499E-07,  2.09647462E-10, -3.16236299E+04,
                       1.18803618E+01]),
                NASA([461.39, 3000.00],
                     [ 3.47201723E+00,  6.00510247E-02, -4.00567321E-05,
                       1.25663813E-08, -1.49496682E-12, -3.18365767E+04,
                       9.77903975E+00])))

species(name='disub_epoxy',
        atoms='C:4 H:8 O:2',
        thermo=(NASA([10.00, 549.41],
                     [ 3.89863211E+00,  5.97532637E-03,  1.66685676E-04,
                      -3.10743768E-07,  1.78330192E-10, -3.62594119E+04,
                       1.13847308E+01]),
                NASA([549.41, 3000.00],
                     [-6.40277648E-01,  6.05960003E-02, -4.13427220E-05,
                       1.31555461E-08, -1.57685017E-12, -3.60862950E+04,
                       2.76005436E+01])))

species(name='HO2',
        atoms='H:1 O:2',
        thermo=(NASA([10.00, 891.11],
                     [ 4.02887004E+00, -1.75769289E-03,  1.08726004E-05,
                      -1.13812972E-08,  3.90113097E-12,  4.95165001E+02,
                       4.69302008E+00]),
                NASA([891.11, 3000.00],
                     [ 3.06571044E+00,  4.28505005E-03, -2.19325920E-06,
                       5.58882699E-10, -5.61246669E-14,  5.98557610E+02,
                       8.84564156E+00])))

#-------------------------------------------------------------------------------
# Reaction data
#-------------------------------------------------------------------------------

# Reaction 1
chebyshev_reaction('bQOOHg (+ M) <=> bRO2 (+ M)',
                   Tmin=180.0, Tmax=1500.0,
                   Pmin=(0.01, 'atm'), Pmax=(98.692, 'atm'),
                   coeffs=[[-2.86100e+00,  1.59400e+00, -1.89800e-01, -1.09400e-02,  1.24600e-02,  6.08400e-04, -1.43100e-03,  1.67700e-04],
                           [ 1.64400e+00,  2.00200e+00, -8.12700e-02, -2.40700e-02,  4.11100e-03,  3.06400e-03, -4.28300e-04, -2.63900e-04],
                           [-2.61800e+00,  2.42300e-01,  2.04200e-01,  2.07800e-02, -2.29300e-02,  1.46000e-03,  2.78700e-03, -5.89500e-04],
                           [-2.07300e+00, -3.74200e-01,  1.11600e-01,  4.81900e-02, -7.88600e-03, -3.58100e-03,  9.97400e-04,  2.36400e-04],
                           [-1.05900e+00, -2.49000e-01, -4.71200e-02,  2.21500e-02,  1.33400e-02, -2.22500e-03, -1.59600e-03,  3.27800e-04],
                           [-4.58800e-01, -9.62000e-02, -7.15600e-02, -6.82300e-03,  9.68400e-03,  1.60000e-03, -5.41100e-04, -2.16100e-04],
                           [-2.00000e-01, -3.26400e-02, -2.77400e-02, -1.25500e-02, -1.79400e-03,  1.75400e-03,  1.00100e-03, -1.38200e-04],
                           [-7.48300e-02, -7.41100e-03,  5.38300e-03, -5.12000e-03, -4.75200e-03, -3.23700e-04,  6.22900e-04,  2.50000e-04],
                           [-2.85000e-02, -8.65100e-03,  9.04000e-03,  3.80800e-03, -1.37600e-03, -1.56200e-03, -3.53500e-04,  2.67300e-04],
                           [-1.50300e-02, -1.79000e-02, -3.51300e-03,  5.84200e-03,  2.18100e-03, -9.57500e-04, -6.98900e-04, -2.15300e-05]])

# Reaction 2
chebyshev_reaction('bQOOHa (+ M) <=> bRO2 (+ M)',
                   Tmin=180.0, Tmax=1500.0,
                   Pmin=(0.01, 'atm'), Pmax=(98.692, 'atm'),
                   coeffs=[[-7.73900e-01,  2.46700e+00, -3.58200e-01,  2.70500e-02,  3.41900e-02, -1.14100e-02, -2.35900e-03,  1.94400e-03],
                           [-2.30800e+00,  1.54200e-01,  5.04700e-01, -1.33400e-02, -2.19500e-02,  9.52400e-03, -2.34400e-03, -1.42100e-03],
                           [-2.71400e+00, -2.24900e-01,  4.21600e-02,  3.62400e-02, -8.69000e-03, -2.44900e-04,  2.76200e-03, -7.07900e-04],
                           [-1.35600e+00, -1.19000e-01, -5.61100e-02, -7.14800e-03, -2.52500e-03, -6.27100e-04,  1.80500e-03,  3.51500e-04],
                           [-6.55100e-01, -3.77700e-02, -2.09300e-02, -1.02500e-02, -1.24400e-03,  9.44400e-04, -7.96500e-05, -5.21300e-05],
                           [-4.74200e-01,  8.30900e-02, -3.68200e-02, -8.71100e-03,  9.22200e-03,  4.89400e-04, -1.38200e-03,  3.48500e-04],
                           [-3.48100e-02, -1.84700e-01,  1.29000e-02,  1.35900e-02, -6.02700e-03,  9.17400e-04,  1.61300e-03, -6.54300e-04],
                           [-1.71300e-01,  2.43500e-02, -2.83500e-02, -9.01700e-03,  4.71800e-03, -2.95600e-05, -7.11900e-04,  3.32500e-04],
                           [-2.93400e-02, -1.56600e-02, -6.91600e-03, -5.26000e-03, -1.10400e-03,  3.85400e-04, -1.81300e-04, -8.10000e-05],
                           [-1.72800e-02,  2.95100e-03, -9.35400e-03, -1.59900e-03, -9.63800e-04, -3.75500e-04,  8.08700e-05,  5.69700e-05]])

# Reaction 3
chebyshev_reaction('bQOOH[O] (+ M) <=> bRO2 (+ M)',
                   Tmin=180.0, Tmax=1500.0,
                   Pmin=(0.01, 'atm'), Pmax=(98.692, 'atm'),
                   coeffs=[[ 4.06000e+00,  7.68000e-01, -9.05800e-02,  1.44200e-02,  1.62100e-03, -5.88300e-04,  4.98200e-06,  3.27700e-05],
                           [-2.82000e-01,  9.89900e-01, -2.17600e-02, -2.72700e-03,  4.85100e-03, -5.17300e-05, -3.12000e-04,  7.15200e-05],
                           [-2.76300e+00,  2.31100e-01,  8.46900e-02,  3.73300e-03, -2.85200e-03,  7.78000e-04,  2.11300e-04, -9.58400e-05],
                           [-1.75000e+00, -1.41700e-01,  4.33000e-02,  2.06200e-02, -1.99100e-03, -9.13300e-04,  4.00500e-04,  4.53300e-05],
                           [-9.75000e-01, -1.87600e-01, -1.56400e-02,  1.25900e-02,  3.15100e-03, -6.01100e-04, -1.88800e-04,  8.25900e-05],
                           [-4.98200e-01, -1.15100e-01, -2.91200e-02, -2.70700e-03,  2.53200e-03,  9.52200e-04, -1.98800e-04, -1.01200e-04],
                           [-2.25600e-01, -4.77800e-02, -1.42900e-02, -6.82700e-03, -1.18600e-03,  8.87200e-04,  2.55100e-04, -1.02900e-04],
                           [-8.76100e-02, -1.72300e-02, -1.14800e-03, -1.55100e-03, -2.34200e-03, -3.48500e-04,  2.84200e-04,  6.04800e-05],
                           [-2.54200e-02, -1.11300e-02, -4.43700e-04,  3.33000e-03, -4.68400e-04, -9.01800e-04, -9.64200e-05,  1.02500e-04],
                           [ 6.68300e-04, -1.00200e-02, -6.79100e-03,  2.87300e-03,  1.51000e-03, -3.40900e-04, -3.00100e-04, -4.49900e-06]])

# Reaction 4
chebyshev_reaction('O2 + bR (+ M) <=> bRO2 (+ M)',
                   Tmin=180.0, Tmax=1500.0,
                   Pmin=(0.01, 'atm'), Pmax=(98.692, 'atm'),
                   coeffs=[[ 1.15200e+01,  7.52200e-01, -1.45300e-01,  3.31300e-02, -7.53100e-03,  1.34200e-03, -1.66300e-04,  1.12200e-05],
                           [-2.03100e+00,  1.12800e+00, -1.22200e-01,  2.66400e-03,  5.66700e-03, -2.80500e-03,  7.37800e-04, -8.02400e-05],
                           [-1.42300e+00,  6.02100e-01,  2.82900e-02, -2.42900e-02,  6.74500e-03, -1.10100e-03, -9.80900e-05,  1.27300e-04],
                           [-9.77900e-01,  2.06700e-01,  7.87600e-02, -1.47500e-02,  6.35000e-04,  5.55400e-04, -2.70300e-04,  4.81300e-05],
                           [-6.22500e-01, -4.39900e-03,  6.25200e-02,  5.54800e-04, -1.61100e-03,  3.25000e-04, -4.74800e-05, -2.23200e-05],
                           [-3.71300e-01, -8.32200e-02,  2.87700e-02,  7.22700e-03, -5.61600e-04, -8.64400e-05, -1.62400e-05, -1.34700e-05],
                           [-2.02300e-01, -9.40300e-02,  3.84300e-03,  5.95300e-03,  7.89800e-04, -7.74500e-05, -5.68200e-05, -1.10600e-05],
                           [-9.49700e-02, -7.35300e-02, -1.00700e-02,  2.84800e-03,  9.19100e-04,  1.07300e-04, -3.45700e-05, -1.62200e-05],
                           [-3.10200e-02, -4.46500e-02, -1.46200e-02, -6.08900e-05,  5.66600e-04,  1.11800e-04,  2.31300e-05, -2.61800e-06],
                           [ 2.65200e-03, -1.76100e-02, -1.35500e-02, -1.98800e-03,  1.39300e-04,  4.31300e-05,  3.70000e-05,  1.93200e-05]])
#  bRO2(+M) <=> bQOOHg(+M)                             1.000e+00 0.000     0.000
#      TCHEB/ 180.000   1500.000 /
#      PCHEB/ 0.010     98.692   /
#      CHEB/ 10 8/
#      CHEB/ -1.269e+01   1.594e+00    -1.898e-01   -1.094e-02   1.246e-02   /
#      CHEB/ 6.084e-04    -1.431e-03   1.677e-04    1.051e+01    2.002e+00   /
#      CHEB/ -8.127e-02   -2.407e-02   4.111e-03    3.064e-03    -4.283e-04  /
#      CHEB/ -2.639e-04   -2.472e+00   2.423e-01    2.042e-01    2.078e-02   /
#      CHEB/ -2.293e-02   1.460e-03    2.787e-03    -5.895e-04   -2.036e+00  /
#      CHEB/ -3.742e-01   1.116e-01    4.819e-02    -7.886e-03   -3.581e-03  /
#      CHEB/ 9.974e-04    2.364e-04    -1.053e+00   -2.490e-01   -4.712e-02  /
#      CHEB/ 2.215e-02    1.334e-02    -2.225e-03   -1.596e-03   3.278e-04   /
#      CHEB/ -4.589e-01   -9.620e-02   -7.156e-02   -6.823e-03   9.684e-03   /
#      CHEB/ 1.600e-03    -5.411e-04   -2.161e-04   -2.006e-01   -3.264e-02  /
#      CHEB/ -2.774e-02   -1.255e-02   -1.794e-03   1.754e-03    1.001e-03   /
#      CHEB/ -1.382e-04   -7.528e-02   -7.411e-03   5.383e-03    -5.120e-03  /
#      CHEB/ -4.752e-03   -3.237e-04   6.229e-04    2.500e-04    -2.883e-02  /
#      CHEB/ -8.651e-03   9.040e-03    3.808e-03    -1.376e-03   -1.562e-03  /
#      CHEB/ -3.535e-04   2.673e-04    -1.521e-02   -1.790e-02   -3.513e-03  /
#      CHEB/ 5.842e-03    2.181e-03    -9.575e-04   -6.989e-04   -2.153e-05  /

# Reaction 5
chebyshev_reaction('bQOOHa (+ M) <=> bQOOHg (+ M)',
                   Tmin=180.0, Tmax=1500.0,
                   Pmin=(0.01, 'atm'), Pmax=(98.692, 'atm'),
                   coeffs=[[-1.72100e+01,  3.09200e+00, -1.58300e-01,  5.41000e-02,  2.14600e-02, -2.15500e-02, -5.28600e-03,  2.79100e-03],
                           [ 4.30300e+00,  1.25100e+00,  1.35700e-01, -3.98900e-02,  1.71200e-02,  2.64800e-02, -1.51100e-03, -3.79600e-03],
                           [-2.78900e+00, -2.39200e-01,  9.30800e-02, -1.38100e-02, -5.24400e-02, -1.13600e-04,  8.96700e-03,  1.21000e-03],
                           [-2.00100e+00, -4.01000e-01,  1.07000e-01,  5.71900e-02, -1.05000e-02, -8.75400e-03, -6.02000e-04, -4.62100e-04],
                           [-9.71800e-01, -1.99700e-01, -2.52200e-02,  2.91200e-02,  1.73600e-02, -4.05700e-04, -1.93200e-03, -1.28500e-04],
                           [-4.56900e-01,  5.52900e-03, -9.44500e-02, -9.94100e-03,  1.83400e-02,  2.11400e-03, -1.15100e-03,  4.82700e-04],
                           [-9.37800e-02, -1.27200e-01,  3.72800e-05, -2.06000e-03, -9.24900e-03,  2.03900e-03,  2.32100e-03, -6.00800e-04],
                           [-7.96100e-02,  2.69200e-02, -1.41300e-02, -9.65700e-03,  1.52800e-04, -6.83900e-04, -1.39600e-04,  4.73300e-04],
                           [-2.20800e-02, -1.22700e-02,  7.58000e-03,  5.50000e-04, -1.85800e-03, -1.08500e-03, -4.86000e-04,  2.13000e-04],
                           [-1.38500e-02, -1.14800e-02, -7.29100e-03,  6.83200e-03,  1.93400e-03, -1.42100e-03, -7.68700e-04,  3.22500e-05]])

# Reaction 6
chebyshev_reaction('bQOOH[O] (+ M) <=> bQOOHg (+ M)',
                   Tmin=180.0, Tmax=1500.0,
                   Pmin=(0.01, 'atm'), Pmax=(98.692, 'atm'),
                   coeffs=[[-8.42100e+00,  1.19700e+00, -4.58400e-01, -1.80100e-02,  3.17700e-02, -5.04500e-04, -3.78300e-03,  5.65700e-04],
                           [ 2.82200e+00,  2.64600e+00,  1.11800e-01, -5.19200e-02, -1.15700e-02,  6.51600e-03,  1.48600e-03, -7.96700e-04],
                           [-3.21600e+00, -2.09500e-01,  3.43500e-01,  7.93300e-02, -3.63200e-02, -4.06500e-03,  4.72800e-03, -1.76800e-04],
                           [-2.15200e+00, -6.18600e-01,  3.87800e-02,  6.87200e-02,  7.72700e-03, -3.86800e-03, -1.38000e-03,  1.71900e-04],
                           [-1.04000e+00, -3.30200e-01, -1.23800e-01,  6.58400e-03,  1.98400e-02,  1.15700e-03, -1.60600e-03, -1.12000e-05],
                           [-4.13400e-01, -6.98000e-02, -9.58700e-02, -2.57100e-02,  4.60300e-03,  2.70700e-03,  7.87100e-04, -8.05800e-05],
                           [-1.24800e-01,  5.81700e-02, -1.36200e-02, -2.33600e-02, -7.45700e-03,  9.86100e-04,  1.20800e-03,  7.44300e-05],
                           [-3.00000e-02,  6.55000e-02,  3.39000e-02, -2.64100e-03, -7.45000e-03, -1.84100e-03,  2.31200e-04,  3.10500e-04],
                           [-1.76000e-02,  1.52500e-02,  3.10300e-02,  1.36300e-02, -6.45600e-04, -2.63200e-03, -7.54300e-04,  2.00300e-04],
                           [-2.23200e-02, -2.70300e-02,  2.64000e-03,  1.34600e-02,  5.12600e-03, -7.97200e-04, -1.00200e-03, -1.60700e-04]])

# Reaction 7
chebyshev_reaction('O2 + bR (+ M) <=> bQOOHg (+ M)',
                   Tmin=180.0, Tmax=1500.0,
                   Pmin=(0.01, 'atm'), Pmax=(98.692, 'atm'),
                   coeffs=[[ 2.29200e+00,  1.64100e+00, -7.01500e-01, -3.17700e-03,  5.28600e-02, -1.03100e-02, -4.48600e-03,  2.58700e-03],
                           [-1.38500e+00,  1.51500e+00,  5.82700e-01, -1.54900e-01, -5.52500e-02,  2.86000e-02,  3.42000e-03, -4.87100e-03],
                           [-1.75000e+00,  5.87100e-02,  3.18100e-01,  6.37100e-02, -3.08700e-02, -1.28500e-02,  5.65400e-03,  1.63800e-03],
                           [-1.17100e+00, -3.39200e-01,  5.62200e-02,  6.62400e-02,  1.01000e-02, -7.74600e-03, -3.11800e-03,  1.27500e-03],
                           [-5.54000e-01, -2.64500e-01, -5.83800e-02,  1.67900e-02,  1.33900e-02,  3.40700e-03, -2.18000e-03, -9.38800e-04],
                           [-1.82400e-01, -8.75100e-02, -5.95700e-02, -1.30000e-02,  1.37000e-03,  5.01900e-03,  1.09700e-03, -8.48000e-04],
                           [-2.84400e-02,  2.03900e-02, -1.63800e-02, -1.38500e-02, -7.20500e-03,  1.06800e-03,  2.12400e-03,  8.19800e-05],
                           [-3.99800e-04,  4.76200e-02,  1.46900e-02, -1.38800e-03, -6.89200e-03, -2.36200e-03,  1.03900e-03,  5.43000e-04],
                           [-9.31500e-03,  1.96900e-02,  1.87300e-02,  9.43600e-03, -1.82700e-03, -3.15500e-03, -2.31600e-04,  3.90900e-04],
                           [-2.14600e-02, -9.13900e-03,  3.96500e-03,  9.46200e-03,  3.34400e-03, -1.65300e-03, -9.22500e-04,  6.91200e-05]])
#  bRO2(+M) <=> bQOOHa(+M)                             1.000e+00 0.000     0.000
#      TCHEB/ 180.000   1500.000 /
#      PCHEB/ 0.010     98.692   /
#      CHEB/ 10 8/
#      CHEB/ -6.712e+00   2.467e+00    -3.582e-01   2.705e-02    3.419e-02   /
#      CHEB/ -1.141e-02   -2.359e-03   1.944e-03    3.269e+00    1.542e-01   /
#      CHEB/ 5.047e-01    -1.334e-02   -2.195e-02   9.524e-03    -2.344e-03  /
#      CHEB/ -1.421e-03   -2.659e+00   -2.249e-01   4.216e-02    3.624e-02   /
#      CHEB/ -8.690e-03   -2.449e-04   2.762e-03    -7.079e-04   -1.355e+00  /
#      CHEB/ -1.190e-01   -5.611e-02   -7.148e-03   -2.525e-03   -6.271e-04  /
#      CHEB/ 1.805e-03    3.515e-04    -6.599e-01   -3.777e-02   -2.093e-02  /
#      CHEB/ -1.025e-02   -1.244e-03   9.444e-04    -7.965e-05   -5.213e-05  /
#      CHEB/ -4.769e-01   8.309e-02    -3.682e-02   -8.711e-03   9.222e-03   /
#      CHEB/ 4.894e-04    -1.382e-03   3.485e-04    -3.615e-02   -1.847e-01  /
#      CHEB/ 1.290e-02    1.359e-02    -6.027e-03   9.174e-04    1.613e-03   /
#      CHEB/ -6.543e-04   -1.721e-01   2.435e-02    -2.835e-02   -9.017e-03  /
#      CHEB/ 4.718e-03    -2.956e-05   -7.119e-04   3.325e-04    -2.969e-02  /
#      CHEB/ -1.566e-02   -6.916e-03   -5.260e-03   -1.104e-03   3.854e-04   /
#      CHEB/ -1.813e-04   -8.100e-05   -1.740e-02   2.951e-03    -9.354e-03  /
#      CHEB/ -1.599e-03   -9.638e-04   -3.755e-04   8.087e-05    5.697e-05   /
#  bQOOHg(+M) <=> bQOOHa(+M)                           1.000e+00 0.000     0.000
#      TCHEB/ 180.000   1500.000 /
#      PCHEB/ 0.010     98.692   /
#      CHEB/ 10 8/
#      CHEB/ -1.331e+01   3.092e+00    -1.583e-01   5.410e-02    2.146e-02   /
#      CHEB/ -2.155e-02   -5.286e-03   2.791e-03    1.013e+00    1.251e+00   /
#      CHEB/ 1.357e-01    -3.989e-02   1.712e-02    2.648e-02    -1.511e-03  /
#      CHEB/ -3.796e-03   -2.879e+00   -2.392e-01   9.308e-02    -1.381e-02  /
#      CHEB/ -5.244e-02   -1.136e-04   8.967e-03    1.210e-03    -2.037e+00  /
#      CHEB/ -4.010e-01   1.070e-01    5.719e-02    -1.050e-02   -8.754e-03  /
#      CHEB/ -6.020e-04   -4.621e-04   -9.824e-01   -1.997e-01   -2.522e-02  /
#      CHEB/ 2.912e-02    1.736e-02    -4.057e-04   -1.932e-03   -1.285e-04  /
#      CHEB/ -4.596e-01   5.529e-03    -9.445e-02   -9.941e-03   1.834e-02   /
#      CHEB/ 2.114e-03    -1.151e-03   4.827e-04    -9.454e-02   -1.272e-01  /
#      CHEB/ 3.728e-05    -2.060e-03   -9.249e-03   2.039e-03    2.321e-03   /
#      CHEB/ -6.008e-04   -7.988e-02   2.692e-02    -1.413e-02   -9.657e-03  /
#      CHEB/ 1.528e-04    -6.839e-04   -1.396e-04   4.733e-04    -2.211e-02  /
#      CHEB/ -1.227e-02   7.580e-03    5.500e-04    -1.858e-03   -1.085e-03  /
#      CHEB/ -4.860e-04   2.130e-04    -1.378e-02   -1.148e-02   -7.291e-03  /
#      CHEB/ 6.832e-03    1.934e-03    -1.421e-03   -7.687e-04   3.225e-05   /

# Reaction 8
chebyshev_reaction('bQOOH[O] (+ M) <=> bQOOHa (+ M)',
                   Tmin=180.0, Tmax=1500.0,
                   Pmin=(0.01, 'atm'), Pmax=(98.692, 'atm'),
                   coeffs=[[-6.41200e+00,  2.22100e+00, -9.18500e-02,  5.58100e-02, -2.79600e-03, -2.79300e-02, -4.26400e-03,  3.89100e-03],
                           [-8.92900e-01,  2.60700e-01,  2.21400e-01, -4.71100e-04,  2.84500e-02,  2.74800e-02, -1.55800e-03, -5.10300e-03],
                           [-2.99600e+00, -2.12100e-01,  8.28000e-03, -1.06800e-02, -2.29500e-02,  2.33000e-03,  6.80100e-03,  1.48400e-03],
                           [-1.73100e+00, -2.10500e-01,  1.26800e-02,  1.35500e-02, -1.12500e-02, -6.88500e-03,  3.34000e-05,  4.84400e-04],
                           [-8.96500e-01, -1.46300e-01,  3.85300e-03,  1.62100e-02,  4.21100e-03, -7.39900e-04, -1.56200e-03, -6.88000e-04],
                           [-4.89100e-01, -4.59100e-03, -4.19900e-02, -6.04200e-04,  1.30200e-02,  1.58600e-03, -1.31000e-03,  1.33400e-04],
                           [-1.19400e-01, -1.47900e-01,  1.29200e-02,  3.96700e-03, -7.72700e-03,  2.19400e-03,  2.15700e-03, -4.47900e-04],
                           [-9.12400e-02,  1.38500e-02, -2.12100e-02, -6.84700e-03,  1.94400e-03, -8.56900e-04, -3.37300e-04,  4.96200e-04],
                           [-1.71900e-02, -1.57600e-02, -1.24800e-03,  2.50500e-04, -1.16000e-03, -6.44200e-04, -3.80200e-04, -1.10300e-05],
                           [ 2.44100e-03, -5.67300e-03, -1.09400e-02,  3.84800e-03,  1.31400e-03, -7.07200e-04, -3.49500e-04, -9.52100e-06]])

# Reaction 9
chebyshev_reaction('O2 + bR (+ M) <=> bQOOHa (+ M)',
                   Tmin=180.0, Tmax=1500.0,
                   Pmin=(0.01, 'atm'), Pmax=(98.692, 'atm'),
                   coeffs=[[ 1.12200e+00,  2.35000e+00, -3.89900e-02,  1.43200e-01,  2.11600e-02, -1.61500e-02, -5.11800e-03,  1.10400e-03],
                           [-2.75300e+00,  2.11500e-01, -2.89900e-02, -8.56800e-02, -1.21700e-02,  1.44700e-02,  2.39100e-03, -7.14200e-04],
                           [-1.63600e+00,  2.10400e-01, -1.85800e-02, -2.27200e-02, -9.81800e-03, -2.24500e-03,  2.92500e-03, -2.16200e-04],
                           [-9.54900e-01,  1.58400e-01,  5.90700e-02, -1.19600e-02, -2.32700e-03, -2.39400e-03,  1.28200e-04,  1.69600e-04],
                           [-5.50200e-01,  3.79100e-02,  7.78200e-02,  3.25400e-03, -2.26800e-04,  1.03500e-03, -5.91300e-04, -2.79800e-04],
                           [-3.67200e-01,  2.84300e-02,  1.20600e-02,  7.45000e-03,  8.80100e-03,  9.37200e-06, -1.22300e-03,  3.56500e-04],
                           [-9.90200e-02, -1.91400e-01,  2.95600e-02,  1.62600e-02, -6.13500e-03,  8.78800e-04,  1.59800e-03, -4.63100e-04],
                           [-1.00300e-01, -3.88700e-02, -3.01600e-02, -2.11800e-03,  5.34600e-03, -4.49500e-04, -7.65500e-04,  3.40500e-04],
                           [-2.46700e-02, -4.76200e-02, -1.60400e-02, -3.12700e-03,  6.53100e-05,  5.20500e-04, -1.97100e-04, -1.05900e-04],
                           [ 3.73700e-03, -1.08700e-02, -1.73400e-02, -7.57800e-04,  3.79200e-05, -3.30600e-04, -2.99600e-05,  3.23700e-05]])
#  bRO2(+M) <=> bQOOH[O](+M)                           1.000e+00 0.000     0.000
#      TCHEB/ 180.000   1500.000 /
#      PCHEB/ 0.010     98.692   /
#      CHEB/ 10 8/
#      CHEB/ -6.425e+00   7.680e-01    -9.058e-02   1.442e-02    1.621e-03   /
#      CHEB/ -5.883e-04   4.982e-06    3.277e-05    8.423e+00    9.899e-01   /
#      CHEB/ -2.176e-02   -2.727e-03   4.851e-03    -5.173e-05   -3.120e-04  /
#      CHEB/ 7.152e-05    -2.769e+00   2.311e-01    8.469e-02    3.733e-03   /
#      CHEB/ -2.852e-03   7.780e-04    2.113e-04    -9.584e-05   -1.771e+00  /
#      CHEB/ -1.417e-01   4.330e-02    2.062e-02    -1.991e-03   -9.133e-04  /
#      CHEB/ 4.005e-04    4.533e-05    -9.858e-01   -1.876e-01   -1.564e-02  /
#      CHEB/ 1.259e-02    3.151e-03    -6.011e-04   -1.888e-04   8.259e-05   /
#      CHEB/ -5.021e-01   -1.151e-01   -2.912e-02   -2.707e-03   2.532e-03   /
#      CHEB/ 9.522e-04    -1.988e-04   -1.012e-04   -2.272e-01   -4.778e-02  /
#      CHEB/ -1.429e-02   -6.827e-03   -1.186e-03   8.872e-04    2.551e-04   /
#      CHEB/ -1.029e-04   -8.823e-02   -1.723e-02   -1.148e-03   -1.551e-03  /
#      CHEB/ -2.342e-03   -3.485e-04   2.842e-04    6.048e-05    -2.560e-02  /
#      CHEB/ -1.113e-02   -4.437e-04   3.330e-03    -4.684e-04   -9.018e-04  /
#      CHEB/ -9.642e-05   1.025e-04    6.743e-04    -1.002e-02   -6.791e-03  /
#      CHEB/ 2.873e-03    1.510e-03    -3.409e-04   -3.001e-04   -4.499e-06  /
#  bQOOHg(+M) <=> bQOOH[O](+M)                         1.000e+00 0.000     0.000
#      TCHEB/ 180.000   1500.000 /
#      PCHEB/ 0.010     98.692   /
#      CHEB/ 10 8/
#      CHEB/ -9.075e+00   1.197e+00    -4.584e-01   -1.801e-02   3.177e-02   /
#      CHEB/ -5.045e-04   -3.783e-03   5.657e-04    2.661e+00    2.646e+00   /
#      CHEB/ 1.118e-01    -5.192e-02   -1.157e-02   6.516e-03    1.486e-03   /
#      CHEB/ -7.967e-04   -3.367e+00   -2.095e-01   3.435e-01    7.933e-02   /
#      CHEB/ -3.632e-02   -4.065e-03   4.728e-03    -1.768e-04   -2.211e+00  /