units(length='cm', time='s', quantity='mol', act_energy='kcal/mol')

ideal_gas(name='gas',
          elements="H D T C Ci O Oi N Ne Ar He Si S F Cl Br I X",
          species="""OH             bQOOH[O]       acetone
                     H2O            balkoxyketone  ibutenol
                     trisub_epoxy   bQOOHg         CH2O
                     galkene        O2             bR
                     bQOOHa         bRO2           disub_epoxy
                     HO2""",
          reactions='all',
          initial_state=state(temperature=300.0, pressure=OneAtm))

#-------------------------------------------------------------------------------
# Element data
#-------------------------------------------------------------------------------

element(symbol='Ci', atomic_mass=13.003)
element(symbol='D', atomic_mass=2.014)
element(symbol='Oi', atomic_mass=18.0)
element(symbol='T', atomic_mass=3.016)
element(symbol='X', atomic_mass=195.083)
#-------------------------------------------------------------------------------
# Species data
#-------------------------------------------------------------------------------

species(name='OH',
        atoms='H:1 O:1',
        thermo=(NASA([10.00, 984.14],
                     [ 3.49686242E+00,  1.83973160E-04, -9.97634499E-07,
                       1.56942783E-09, -6.10128175E-13,  3.41673934E+03,
                       1.48093120E+00]),
                NASA([984.14, 3000.00],
                     [ 3.45221464E+00, -2.95124034E-04,  7.39418622E-07,
                      -2.89309866E-10,  3.53041498E-14,  3.45751599E+03,
                       1.85813897E+00])))

species(name='bQOOH[O]',
        atoms='C:4 H:9 O:3',
        thermo=(NASA([10.00, 338.69],
                     [ 3.60915854E+00,  3.39069566E-02,  2.22227265E-04,
                      -8.23527342E-07,  8.56246333E-10, -2.17412562E+04,
                       1.23284605E+01]),
                NASA([338.69, 3000.00],
                     [ 5.03198881E+00,  5.46235886E-02, -3.56935806E-05,
                       1.12371751E-08, -1.35390171E-12, -2.20528390E+04,
                       3.82760723E+00])))

species(name='acetone',
        atoms='C:3 H:6 O:1',
        thermo=(NASA([10.00, 414.35],
                     [ 3.73496166E+00,  3.05743218E-02, -1.26253585E-04,
                       3.66080978E-07, -3.31430437E-10, -2.88305027E+04,
                       8.24936012E+00]),
                NASA([414.35, 3000.00],
                     [ 1.70010292E-01,  3.28431468E-02, -1.80960132E-05,
                       4.82960690E-09, -5.02388538E-13, -2.82591196E+04,
                       2.56372653E+01])))

species(name='H2O',
        atoms='H:2 O:1',
        thermo=(NASA([10.00, 773.84],
                     [ 4.00473541E+00, -2.39729134E-04,  8.11862955E-07,
                       1.47891862E-09, -1.19783539E-12, -3.03533807E+04,
                      -9.96254147E-02]),
                NASA([773.84, 3000.00],
                     [ 3.52133374E+00,  1.05377009E-03,  6.40722099E-07,
                      -3.86240235E-10,  5.49243294E-14, -3.02424794E+04,
                       2.34173094E+00])))

species(name='balkoxyketone',
        atoms='C:4 H:7 O:2',
        thermo=(NASA([10.00, 269.93],
                     [ 3.81931151E+00,  1.68519318E-02,  2.42742224E-04,
                      -9.64821161E-07,  1.18509335E-09, -2.25468966E+04,
                       1.20521854E+01]),
                NASA([269.93, 3000.00],
                     [ 3.57555944E+00,  4.28868089E-02, -2.65390705E-05,
                       7.99659117E-09, -9.32983470E-13, -2.26154247E+04,
                       1.13957990E+01])))

species(name='ibutenol',
        atoms='C:4 H:8 O:1',
        thermo=(NASA([10.00, 135.97],
                     [ 3.95714996E+00,  5.72646980E-03,  4.63611760E-04,
                      -3.04137514E-06,  6.85019471E-09, -2.38342458E+04,
                       8.21931848E+00]),
                NASA([135.97, 3000.00],
                     [ 3.32467612E+00,  3.69033556E-02, -1.89960416E-05,
                       4.73417677E-09, -4.59705291E-13, -2.38286671E+04,
                       9.58133237E+00])))

species(name='trisub_epoxy',
        atoms='C:4 H:8 O:2',
        thermo=(NASA([10.00, 209.19],
                     [ 3.75295042E+00,  2.37546930E-02,  1.26610110E-04,
                      -4.78364365E-07,  5.79468168E-10, -4.06299143E+04,
                       1.12739684E+01]),
                NASA([209.19, 3000.00],
                     [ 2.64185254E+00,  4.50006531E-02, -2.57361066E-05,
                       7.15266054E-09, -7.72980731E-13, -4.05834287E+04,
                       1.48960343E+01])))

species(name='bQOOHg',
        atoms='C:4 H:9 O:3',
        thermo=(NASA([10.00, 441.09],
                     [ 3.56595280E+00,  3.36073467E-02,  2.03462772E-04,
                      -5.98977617E-07,  4.83271168E-10, -2.15640919E+04,
                       1.33537891E+01]),
                NASA([441.09, 3000.00],
                     [ 6.09031192E+00,  5.80517622E-02, -4.06392697E-05,
                       1.32574026E-08, -1.62501077E-12, -2.22472774E+04,
                      -1.97849715E+00])))

species(name='CH2O',
        atoms='C:1 H:2 O:1',
        thermo=(NASA([10.00, 601.31],
                     [ 4.03190845E+00, -1.93233367E-03,  8.89743345E-06,
                       2.98105926E-09, -7.90813886E-12, -1.42276270E+04,
                       3.47574660E+00]),
                NASA([601.31, 3000.00],
                     [ 1.40134195E+00,  9.48858016E-03, -4.43088317E-06,
                       9.48452194E-10, -7.43790219E-14, -1.38013869E+04,
                       1.57423780E+01])))

species(name='galkene',
        atoms='C:4 H:8 O:1',
        thermo=(NASA([10.00, 383.47],
                     [ 3.84035604E+00,  1.20378740E-02,  1.87486319E-04,
                      -5.44759148E-07,  4.80711015E-10, -1.92184459E+04,
                       1.02570291E+01]),
                NASA([383.47, 3000.00],
                     [ 4.00413385E+00,  3.79025144E-02, -2.15435710E-05,
                       6.15213311E-09, -6.97446345E-13, -1.94337352E+04,
                       6.98052628E+00])))

species(name='O2',
        atoms='O:2',
        thermo=(NASA([10.00, 605.96],
                     [ 3.50743498E+00, -4.43860349E-04,  1.45938058E-06,
                       1.61509333E-09, -2.32050052E-12, -9.24756224E+02,
                       4.72183634E+00]),
                NASA([605.96, 3000.00],
                     [ 2.87462882E+00,  2.17840991E-03, -1.18262921E-06,
                       2.86910493E-10, -2.53297146E-14, -8.19517838E+02,
                       7.69331810E+00])))

species(name='bR',
        atoms='C:4 H:9 O:1',
        thermo=(NASA([10.00, 483.43],
                     [ 3.38164846E+00,  5.97142637E-02, -1.58320095E-04,
                       3.04908893E-07, -2.13091806E-10, -1.43166075E+04,
                       1.09226843E+01]),
                NASA([483.43, 3000.00],
                     [ 2.33428824E+00,  4.22094427E-02, -2.28029290E-05,
                       6.04614564E-09, -6.30240159E-13, -1.39095255E+04,
                       1.83772893E+01])))

species(name='bQOOHa',
        atoms='C:4 H:9 O:3',
        thermo=(NASA([10.00, 390.53],
                     [ 3.54969236E+00,  3.76592474E-02,  1.76622653E-04,
                      -5.98063750E-07,  5.45069236E-10, -2.57161679E+04,
                       1.31518761E+01]),
                NASA([390.53, 3000.00],
                     [ 5.33564209E+00,  5.64935715E-02, -3.83214298E-05,
                       1.22990604E-08, -1.49549987E-12, -2.61387779E+04,
                       2.59015836E+00])))

species(name='bRO2',
        atoms='C:4 H:9 O:3',
        thermo=(NASA([10.00, 461.39],
                     [ 3.53964713E+00,  3.88723795E-02,  9.57420148E-05,
                      -2.80380499E-07,  2.09647462E-10, -3.23815792E+04,
                       1.18803618E+01]),
                NASA([461.39, 3000.00],
                     [ 3.47201723E+00,  6.00510247E-02, -4.00567321E-05,
                       1.25663813E-08, -1.49496682E-12, -3.25945259E+04,
                       9.77903975E+00])))

species(name='disub_epoxy',
        atoms='C:4 H:8 O:2',
        thermo=(NASA([10.00, 549.41],
                     [ 3.89863211E+00,  5.97532637E-03,  1.66685676E-04,
                      -3.10743768E-07,  1.78330192E-10, -3.88492741E+04,
                       1.13847308E+01]),
                NASA([549.41, 3000.00],
                     [-6.40277648E-01,  6.05960003E-02, -4.13427220E-05,
                       1.31555461E-08, -1.57685017E-12, -3.86761572E+04,
                       2.76005436E+01])))

species(name='HO2',
        atoms='H:1 O:2',
        thermo=(NASA([10.00, 891.11],
                     [ 4.02887004E+00, -1.75769289E-03,  1.08726004E-05,
                      -1.13812972E-08,  3.90113097E-12,  4.95165001E+02,
                       4.69302008E+00]),
                NASA([891.11, 3000.00],
                     [ 3.06571044E+00,  4.28505005E-03, -2.19325920E-06,
                       5.58882699E-10, -5.61246669E-14,  5.98557610E+02,
                       8.84564156E+00])))

#-------------------------------------------------------------------------------
# Reaction data
#-------------------------------------------------------------------------------

# Reaction 1
chebyshev_reaction('bQOOHg (+ M) <=> bRO2 (+ M)',
                   Tmin=180.0, Tmax=1500.0,
                   Pmin=(0.01, 'atm'), Pmax=(98.692, 'atm'),
                   coeffs=[[ 4.17100e+00,  7.94400e-01, -7.32100e-02,  9.26400e-04,  2.79200e-03, -1.13200e-03, -1.52600e-04,  2.22500e-04],
                           [-7.84800e-02,  1.27600e+00, -7.54500e-02, -1.07600e-02,  3.73700e-03, -6.91600e-04, -3.40400e-04,  2.65000e-04],
                           [-9.57900e-01,  6.60700e-01,  3.22900e-02, -2.34000e-02, -1.71000e-03,  1.83400e-03, -1.04100e-04, -8.52400e-05],
                           [-7.27200e-01,  2.25800e-01,  5.77300e-02, -1.68200e-02, -5.54500e-03,  1.88000e-03,  4.58400e-04, -1.99000e-04],
                           [-3.41300e-01,  7.49400e-02,  2.57900e-02, -5.37800e-03, -4.43600e-03,  1.65000e-04,  6.54900e-04, -1.04000e-05],
                           [-1.13800e-01,  5.03700e-02,  2.97500e-03, -1.03500e-03, -1.81400e-03, -7.19400e-04,  3.41500e-04,  1.47500e-04],
                           [-3.33100e-02,  3.52500e-02,  1.03800e-03, -6.77400e-04, -6.71100e-04, -4.82800e-04,  3.25400e-05,  1.15000e-04],
                           [-1.37400e-02,  1.65000e-02,  2.30800e-03, -2.88700e-04, -3.71700e-04, -1.58700e-04, -5.01300e-05,  3.01000e-05],
                           [-5.63600e-03,  6.22900e-03,  6.49200e-04, -1.45900e-04,  2.16200e-05, -6.02900e-05, -5.60200e-05, -2.91700e-06],
                           [ 5.33100e-04,  4.23200e-03, -1.07500e-03, -3.02400e-04,  2.61400e-04, -3.80100e-06, -5.81200e-05, -1.16600e-05]])

# Reaction 2
chebyshev_reaction('bQOOHa (+ M) <=> bRO2 (+ M)',
                   Tmin=180.0, Tmax=1500.0,
                   Pmin=(0.01, 'atm'), Pmax=(98.692, 'atm'),
                   coeffs=[[ 3.75500e+00,  6.82300e-01, -8.41200e-02, -4.90000e-03,  5.28700e-03,  5.61100e-04, -5.72100e-04, -1.24200e-04],
                           [ 9.42400e-01,  1.11200e+00, -1.04000e-01, -1.43300e-02,  6.96600e-03,  1.55700e-03, -7.57900e-04, -2.72500e-04],
                           [-4.49200e-01,  5.80300e-01,  1.25100e-02, -1.72300e-02, -9.44400e-04,  1.94300e-03,  1.10900e-04, -2.61800e-04],
                           [-6.16100e-01,  1.63800e-01,  6.59300e-02, -8.84400e-03, -6.20000e-03,  1.00100e-03,  7.68600e-04, -1.02200e-04],
                           [-3.91900e-01,  1.12000e-02,  4.42800e-02,  1.45400e-03, -5.04400e-03, -6.14800e-04,  6.89200e-04,  1.31100e-04],
                           [-1.73000e-01,  1.08500e-02,  8.50000e-03,  3.85900e-03, -1.08600e-03, -1.23400e-03,  1.21700e-04,  2.23500e-04],
                           [-5.86600e-02,  2.63100e-02, -4.34200e-03,  1.37200e-03,  7.79000e-04, -6.83400e-04, -2.48300e-04,  1.21400e-04],
                           [-1.84200e-02,  1.82500e-02, -1.07200e-03, -3.16000e-05,  2.77300e-04, -7.81400e-05, -1.93500e-04, -6.80100e-06],
                           [-8.07000e-03,  4.51000e-03,  2.56700e-03,  1.97800e-04, -3.40100e-04,  2.92200e-05, -2.62400e-05, -3.41700e-05],
                           [-4.46800e-03, -7.38400e-04,  2.27700e-03,  2.71300e-04, -2.14400e-04, -5.28100e-05,  1.24500e-05, -4.52500e-06]])

# Reaction 3
chebyshev_reaction('bQOOH[O] (+ M) <=> bRO2 (+ M)',
                   Tmin=180.0, Tmax=1500.0,
                   Pmin=(0.01, 'atm'), Pmax=(98.692, 'atm'),
                   coeffs=[[ 9.28300e+00,  1.61900e+00, -2.55500e-01, -6.10500e-02,  9.05800e-03,  9.53800e-03,  8.45200e-04, -1.24300e-03],
                           [-1.44800e+00,  5.71200e-01,  9.39300e-02, -1.75400e-02, -1.92400e-02, -2.14500e-03,  3.51300e-03,  1.45700e-03],
                           [-1.03900e+00,  2.67000e-01,  4.18900e-02,  6.05800e-03, -2.58700e-03, -3.10500e-03, -6.14700e-04,  6.67500e-04],
                           [-6.43000e-01,  1.49500e-01,  2.08900e-02,  3.03400e-03,  2.27800e-04, -7.27800e-04, -5.13100e-04, -6.54400e-05],
                           [-3.54200e-01,  6.27200e-02,  1.25100e-02,  1.42700e-03,  9.71500e-05, -9.24800e-05, -1.81400e-04, -7.84100e-05],
                           [-1.64500e-01,  1.74900e-02,  3.84100e-03,  1.66500e-03,  3.73600e-04, -1.73000e-04, -1.05800e-04, -3.63600e-05],
                           [-6.62800e-02,  3.98600e-03,  1.96900e-03,  1.53200e-04,  1.60100e-04,  8.28000e-05, -7.40400e-05, -3.39200e-05],
                           [-2.39500e-02,  2.42000e-03, -2.19200e-04,  5.30500e-04,  1.16500e-04, -8.21900e-05, -3.88600e-06, -1.17700e-05],
                           [-1.11700e-02,  3.23000e-03,  1.21800e-03, -3.19700e-04, -5.20500e-05,  7.10500e-05, -1.84300e-05, -5.46300e-06],
                           [-4.98200e-03,  1.95700e-03, -9.42700e-06,  3.95600e-04,  2.73400e-05, -8.24200e-05,  9.27100e-06, -3.57800e-07]])

# Reaction 4
chebyshev_reaction('O2 + bR (+ M) <=> bRO2 (+ M)',
                   Tmin=180.0, Tmax=1500.0,
                   Pmin=(0.01, 'atm'), Pmax=(98.692, 'atm'),
                   coeffs=[[ 1.50900e+01,  1.11600e+00, -9.31000e-02, -1.35700e-03,  7.93700e-04,  8.64600e-05, -1.46100e-05, -5.26100e-06],
                           [-2.47300e+00,  7.86500e-01,  5.88500e-02, -5.59100e-03, -1.59700e-03, -9.81900e-05,  3.08200e-05,  8.00000e-06],
                           [-9.51400e-01,  1.18600e-01,  2.99200e-02,  4.65200e-03,  2.40000e-04, -9.67200e-05, -3.16500e-05, -2.80000e-06],
                           [-3.05300e-01, -1.28000e-02,  2.07100e-03,  1.23800e-03,  3.38500e-04,  6.64300e-05,  7.64300e-06, -2.07900e-06],
                           [-9.93300e-02, -6.46800e-03, -7.71000e-04, -1.18100e-04, -2.80500e-05,  6.09400e-06,  3.90200e-06,  2.27000e-06],
                           [-4.83700e-02,  1.79300e-04,  5.97900e-04,  1.06400e-04, -9.91600e-06, -1.24000e-05, -1.84700e-06, -7.49800e-07],
                           [-2.57100e-02, -2.25900e-03,  3.37400e-04,  1.81400e-04,  3.07700e-05,  3.67200e-06, -9.09200e-07, -5.62600e-07],
                           [-6.71500e-03, -4.33800e-03, -3.38200e-04,  5.59000e-05,  2.27800e-05,  5.50500e-06,  1.70300e-07,  4.99400e-07],
                           [ 5.53900e-03, -4.45700e-03, -4.93600e-04, -6.16900e-06,  9.32300e-06,  6.85700e-07,  1.21900e-07,  1.85800e-07],
                           [ 7.42800e-03, -1.89500e-03, -4.33200e-04, -4.83700e-05,  2.23700e-06,  3.47500e-07,  9.89500e-07, -6.25500e-07]])
#  bRO2(+M) <=> bQOOHg(+M)                             1.000e+00 0.000     0.000
#      TCHEB/ 180.000   1500.000 /
#      PCHEB/ 0.010     98.692   /
#      CHEB/ 10 8/
#      CHEB/ -9.492e+00   7.944e-01    -7.321e-02   9.264e-04    2.792e-03   /
#      CHEB/ -1.132e-03   -1.526e-04   2.225e-04    1.180e+01    1.276e+00   /
#      CHEB/ -7.545e-02   -1.076e-02   3.737e-03    -6.916e-04   -3.404e-04  /
#      CHEB/ 2.650e-04    -8.121e-01   6.607e-01    3.229e-02    -2.340e-02  /
#      CHEB/ -1.710e-03   1.834e-03    -1.041e-04   -8.524e-05   -6.900e-01  /
#      CHEB/ 2.258e-01    5.773e-02    -1.682e-02   -5.545e-03   1.880e-03   /
#      CHEB/ 4.584e-04    -1.990e-04   -3.356e-01   7.494e-02    2.579e-02   /
#      CHEB/ -5.378e-03   -4.436e-03   1.650e-04    6.549e-04    -1.040e-05  /
#      CHEB/ -1.139e-01   5.037e-02    2.975e-03    -1.035e-03   -1.814e-03  /
#      CHEB/ -7.194e-04   3.415e-04    1.475e-04    -3.389e-02   3.525e-02   /
#      CHEB/ 1.038e-03    -6.774e-04   -6.711e-04   -4.828e-04   3.254e-05   /
#      CHEB/ 1.150e-04    -1.419e-02   1.650e-02    2.308e-03    -2.887e-04  /
#      CHEB/ -3.717e-04   -1.587e-04   -5.013e-05   3.010e-05    -5.960e-03  /
#      CHEB/ 6.229e-03    6.492e-04    -1.459e-04   2.162e-05    -6.029e-05  /
#      CHEB/ -5.602e-05   -2.917e-06   3.467e-04    4.232e-03    -1.075e-03  /
#      CHEB/ -3.024e-04   2.614e-04    -3.801e-06   -5.812e-05   -1.166e-05  /

# Reaction 5
chebyshev_reaction('bQOOHa (+ M) <=> bQOOHg (+ M)',
                   Tmin=180.0, Tmax=1500.0,
                   Pmin=(0.01, 'atm'), Pmax=(98.692, 'atm'),
                   coeffs=[[-7.85100e+00,  1.75800e-02, -2.89000e-01,  8.87300e-03,  6.53300e-03, -3.25700e-03, -3.17900e-04,  5.98900e-04],
                           [ 6.55000e+00,  2.48600e+00, -8.78500e-02, -7.15900e-02,  3.21700e-03,  2.04300e-03, -6.20200e-04,  2.73700e-04],
                           [-8.61000e-01,  8.58400e-01,  1.42500e-01, -4.37700e-02, -2.22800e-02,  3.95200e-03,  2.31100e-03, -4.54300e-04],
                           [-7.01500e-01,  2.69100e-01,  6.38300e-02, -7.19500e-03, -1.27900e-02, -1.65000e-03,  1.55200e-03,  2.94200e-04],
                           [-1.57100e-01,  1.34100e-01, -2.45000e-03,  3.73400e-03, -1.89600e-03, -2.35100e-03, -2.27300e-04,  2.90000e-04],
                           [ 4.97400e-02,  4.43300e-02, -7.66400e-03,  8.72000e-03,  4.54700e-04, -1.26600e-03, -5.64600e-04, -4.90900e-05],
                           [ 5.69400e-02, -1.94100e-02, -4.14400e-03,  9.30000e-03,  1.52000e-03, -6.41800e-04, -5.44500e-04, -1.18000e-04],
                           [ 3.65200e-02, -3.40900e-02, -5.04600e-03,  6.64800e-03,  1.89600e-03, -2.54100e-04, -4.38900e-04, -8.49600e-05],
                           [ 1.80800e-02, -2.94800e-02, -2.61600e-03,  4.15300e-03,  9.19600e-04, -3.39400e-05, -1.79900e-04, -5.19300e-05],
                           [ 1.47500e-02, -2.10800e-02,  3.97400e-04,  2.43900e-03,  1.25900e-05,  2.86600e-05, -5.10400e-06, -1.66400e-06]])

# Reaction 6
chebyshev_reaction('bQOOH[O] (+ M) <=> bQOOHg (+ M)',
                   Tmin=180.0, Tmax=1500.0,
                   Pmin=(0.01, 'atm'), Pmax=(98.692, 'atm'),
                   coeffs=[[-1.17000e+00,  6.02200e-01, -3.68800e-01, -5.48200e-02,  1.05500e-02,  7.97100e-03,  8.21800e-04, -1.26800e-03],
                           [ 2.21300e+00,  1.87800e+00,  1.58600e-02, -2.75200e-02, -1.36100e-02, -5.01400e-03,  1.82500e-03,  1.84100e-03],
                           [-1.00900e+00,  7.77900e-01,  1.03400e-01, -2.53800e-02, -8.26200e-03, -8.10900e-04, -7.04000e-04,  2.90000e-04],
                           [-7.67100e-01,  2.47200e-01,  5.40000e-02, -3.34700e-03, -6.85000e-03, -6.97900e-04, -1.33100e-04, -2.45000e-04],
                           [-2.22200e-01,  1.06800e-01,  2.61900e-03,  6.23400e-03, -2.75200e-03, -1.68000e-03,  5.65600e-05, -2.99800e-05],
                           [ 5.68200e-03,  4.94100e-02, -2.27300e-03,  5.91500e-03, -4.83900e-04, -1.31100e-03, -1.82500e-04,  7.56800e-05],
                           [ 3.52200e-02,  7.65700e-03,  2.72200e-03,  4.74300e-03, -2.02500e-04, -6.37700e-04, -1.37200e-04,  4.28400e-05],
                           [ 2.03500e-02, -1.14600e-02, -1.76900e-03,  4.64600e-03,  4.83800e-04, -3.98100e-04, -1.52800e-04,  7.85300e-06],
                           [ 8.58800e-03, -1.20400e-02, -1.53200e-03,  2.33600e-03,  2.61000e-04, -8.48600e-06, -5.49800e-05, -1.39800e-05],
                           [ 1.01800e-02, -1.11000e-02, -1.11900e-03,  1.52100e-03,  1.85100e-04,  9.84600e-05, -4.60800e-05, -3.03400e-05]])

# Reaction 7
chebyshev_reaction('O2 + bR (+ M) <=> bQOOHg (+ M)',
                   Tmin=180.0, Tmax=1500.0,
                   Pmin=(0.01, 'atm'), Pmax=(98.692, 'atm'),
                   coeffs=[[ 7.81400e+00,  3.85000e-01, -3.25900e-01,  9.45000e-03,  9.58000e-03, -4.27600e-03, -4.69700e-05,  8.24900e-04],
                           [-5.53700e-01,  1.31800e+00,  1.25100e-01, -6.09200e-02, -7.73900e-03,  7.22800e-03, -2.55000e-04, -8.51500e-04],
                           [-2.54200e-01,  2.18000e-01,  6.82800e-02, -1.40000e-02, -1.13400e-02,  7.87800e-04,  1.58900e-03, -4.92400e-05],
                           [ 2.63300e-02, -2.67600e-02,  3.53100e-02,  6.30800e-03, -8.69800e-03, -2.96700e-03,  1.10500e-03,  4.91400e-04],
                           [ 7.22100e-02, -1.53900e-02,  1.37300e-02,  9.77200e-03, -1.01500e-03, -3.06400e-03, -5.28900e-04,  5.02400e-04],
                           [ 4.07200e-02, -2.69100e-03,  2.39600e-03,  6.74700e-03,  2.50200e-03, -1.35600e-03, -1.02600e-03,  9.08300e-05],
                           [ 1.93000e-02, -1.58700e-02,  1.37100e-03,  4.16800e-03,  1.39100e-03,  4.45000e-05, -4.27700e-04, -2.65700e-04],
                           [-6.48600e-03,  8.58300e-03, -5.59700e-03, -6.72100e-04,  2.31400e-03,  5.19700e-04, -4.03200e-04, -1.57700e-04],
                           [ 9.46300e-04, -8.38900e-03,  1.77800e-04, -6.67000e-05, -1.53100e-04,  5.51500e-04,  2.05800e-04, -1.72300e-04],
                           [-1.63200e-03,  5.21300e-03, -1.79600e-03, -1.21000e-03,  3.21600e-04,  2.84700e-04,  5.54200e-05, -5.06600e-06]])
#  bRO2(+M) <=> bQOOHa(+M)                             1.000e+00 0.000     0.000
#      TCHEB/ 180.000   1500.000 /
#      PCHEB/ 0.010     98.692   /
#      CHEB/ 10 8/
#      CHEB/ -4.403e+00   6.823e-01    -8.412e-02   -4.900e-03   5.287e-03   /
#      CHEB/ 5.611e-04    -5.721e-04   -1.242e-04   8.264e+00    1.112e+00   /
#      CHEB/ -1.040e-01   -1.433e-02   6.966e-03    1.557e-03    -7.579e-04  /
#      CHEB/ -2.725e-04   -3.942e-01   5.803e-01    1.251e-02    -1.723e-02  /
#      CHEB/ -9.444e-04   1.943e-03    1.109e-04    -2.618e-04   -6.148e-01  /
#      CHEB/ 1.638e-01    6.593e-02    -8.844e-03   -6.200e-03   1.001e-03   /
#      CHEB/ 7.686e-04    -1.022e-04   -3.967e-01   1.120e-02    4.428e-02   /
#      CHEB/ 1.454e-03    -5.044e-03   -6.148e-04   6.892e-04    1.311e-04   /
#      CHEB/ -1.757e-01   1.085e-02    8.500e-03    3.859e-03    -1.086e-03  /
#      CHEB/ -1.234e-03   1.217e-04    2.235e-04    -6.001e-02   2.631e-02   /
#      CHEB/ -4.342e-03   1.372e-03    7.790e-04    -6.834e-04   -2.483e-04  /
#      CHEB/ 1.214e-04    -1.914e-02   1.825e-02    -1.072e-03   -3.160e-05  /
#      CHEB/ 2.773e-04    -7.814e-05   -1.935e-04   -6.801e-06   -8.418e-03  /
#      CHEB/ 4.510e-03    2.567e-03    1.978e-04    -3.401e-04   2.922e-05   /
#      CHEB/ -2.624e-05   -3.417e-05   -4.587e-03   -7.384e-04   2.277e-03   /
#      CHEB/ 2.713e-04    -2.144e-04   -5.281e-05   1.245e-05    -4.525e-06  /
#  bQOOHg(+M) <=> bQOOHa(+M)                           1.000e+00 0.000     0.000
#      TCHEB/ 180.000   1500.000 /
#      PCHEB/ 0.010     98.692   /
#      CHEB/ 10 8/
#      CHEB/ -2.346e+00   1.758e-02    -2.890e-01   8.873e-03    6.533e-03   /
#      CHEB/ -3.257e-03   -3.179e-04   5.989e-04    1.994e+00    2.486e+00   /
#      CHEB/ -8.785e-02   -7.159e-02   3.217e-03    2.043e-03    -6.202e-04  /
#      CHEB/ 2.737e-04    -9.517e-01   8.584e-01    1.425e-01    -4.377e-02  /
#      CHEB/ -2.228e-02   3.952e-03    2.311e-03    -4.543e-04   -7.374e-01  /
#      CHEB/ 2.691e-01    6.383e-02    -7.195e-03   -1.279e-02   -1.650e-03  /
#      CHEB/ 1.552e-03    2.942e-04    -1.677e-01   1.341e-01    -2.450e-03  /
#      CHEB/ 3.734e-03    -1.896e-03   -2.351e-03   -2.273e-04   2.900e-04   /
#      CHEB/ 4.711e-02    4.433e-02    -7.664e-03   8.720e-03    4.547e-04   /
#      CHEB/ -1.266e-03   -5.646e-04   -4.909e-05   5.618e-02    -1.941e-02  /
#      CHEB/ -4.144e-03   9.300e-03    1.520e-03    -6.418e-04   -5.445e-04  /
#      CHEB/ -1.180e-04   3.625e-02    -3.409e-02   -5.046e-03   6.648e-03   /
#      CHEB/ 1.896e-03    -2.541e-04   -4.389e-04   -8.496e-05   1.806e-02   /
#      CHEB/ -2.948e-02   -2.616e-03   4.153e-03    9.196e-04    -3.394e-05  /
#      CHEB/ -1.799e-04   -5.193e-05   1.482e-02    -2.108e-02   3.974e-04   /
#      CHEB/ 2.439e-03    1.259e-05    2.866e-05    -5.104e-06   -1.664e-06  /

# Reaction 8
chebyshev_reaction('bQOOH[O] (+ M) <=> bQOOHa (+ M)',
                   Tmin=180.0, Tmax=1500.0,
                   Pmin=(0.01, 'atm'), Pmax=(98.692, 'atm'),
                   coeffs=[[ 2.14700e+00,  5.65100e-01, -4.16900e-01, -5.19900e-02,  1.29900e-02,  9.46700e-03,  2.98100e-04, -1.49000e-03],
                           [ 5.89400e-01,  1.66300e+00,  3.60900e-02, -5.01100e-02, -7.48200e-03, -2.21400e-03,  1.38400e-03,  1.40700e-03],
                           [-1.03900e+00,  6.13000e-01,  1.38000e-01, -2.05200e-02, -1.25100e-02, -7.81400e-05,  5.51700e-05,  1.02100e-04],
                           [-8.78800e-01,  2.13200e-01,  7.09200e-02,  7.93600e-03, -1.00200e-02, -2.37400e-03,  8.08400e-04,  7.15100e-05],
                           [-3.68200e-01,  1.02400e-01,  1.18800e-02,  8.15500e-03, -9.33700e-04, -2.90900e-03, -2.65800e-04,  3.39400e-04],
                           [-7.15500e-02,  5.64700e-02,  2.00100e-03,  1.68200e-03,  1.40700e-03, -1.13800e-03, -7.11200e-04,  9.59800e-05],
                           [ 3.35900e-03,  2.93300e-02,  5.16500e-03,  4.15700e-04,  9.70900e-05, -2.59100e-04, -2.78700e-04, -4.45300e-05],
                           [ 4.04600e-04,  1.11900e-02,  1.82300e-03,  1.62600e-03,  1.19900e-04, -2.43200e-04, -1.17000e-04, -2.76500e-05],
                           [-6.87000e-03,  6.47300e-03, -7.85600e-04,  6.62000e-04,  2.73300e-04, -7.84200e-05, -3.25000e-05, -1.27700e-05],
                           [-1.25000e-03,  2.43300e-03, -1.98600e-03,  2.83000e-04,  3.42500e-04,  5.80000e-06, -2.78700e-05, -1.56100e-05]])

# Reaction 9
chebyshev_reaction('O2 + bR (+ M) <=> bQOOHa (+ M)',
                   Tmin=180.0, Tmax=1500.0,
                   Pmin=(0.01, 'atm'), Pmax=(98.692, 'atm'),
                   coeffs=[[ 9.94800e+00,  4.41500e-01, -3.55000e-01, -9.65400e-03,  1.79500e-02, -1.30800e-03, -2.34800e-03,  5.69200e-04],
                           [-1.40000e+00,  1.26700e+00,  1.57100e-01, -5.06900e-02, -1.87200e-02,  6.31200e-03,  2.52800e-03, -1.18400e-03],
                           [-6.39900e-01,  2.02300e-01,  8.18000e-02,  1.16000e-03, -1.26600e-02, -2.64000e-03,  2.00800e-03,  7.12100e-04],
                           [-1.70900e-01, -4.20100e-03,  2.65900e-02,  7.21000e-03, -4.15900e-03, -3.34300e-03, -1.03100e-04,  6.87900e-04],
                           [ 1.10000e-02, -1.28500e-02,  9.98300e-03,  6.78300e-03,  2.26500e-04, -1.87900e-03, -8.50900e-04,  1.56500e-04],
                           [ 4.00300e-02, -9.28900e-03,  3.14300e-03,  4.90600e-03,  1.71300e-03, -5.68300e-04, -7.10600e-04, -1.45300e-04],
                           [ 2.09900e-02, -7.17400e-03, -6.76300e-04,  2.38900e-03,  1.61800e-03,  1.64600e-04, -3.65100e-04, -2.04700e-04],
                           [ 6.22800e-03, -4.00400e-03, -1.86600e-03,  5.69600e-04,  9.82300e-04,  3.83300e-04, -8.54800e-05, -1.45500e-04],
                           [-1.01100e-03, -2.07400e-03, -1.45600e-03, -1.78300e-04,  3.85600e-04,  3.11600e-04,  6.26500e-05, -6.19400e-05],
                           [-4.41900e-04,  1.04800e-03, -8.11400e-04, -4.62500e-04,  6.51900e-05,  1.91600e-04,  8.63900e-05, -9.47200e-06]])
#  bRO2(+M) <=> bQOOH[O](+M)                           1.000e+00 0.000     0.000
#      TCHEB/ 180.000   1500.000 /
#      PCHEB/ 0.010     98.692   /
#      CHEB/ 10 8/
#      CHEB/ -4.655e+00   1.619e+00    -2.555e-01   -6.105e-02   9.058e-03   /
#      CHEB/ 9.538e-03    8.452e-04    -1.243e-03   9.970e+00    5.712e-01   /
#      CHEB/ 9.393e-02    -1.754e-02   -1.924e-02   -2.145e-03   3.513e-03   /
#      CHEB/ 1.457e-03    -1.045e+00   2.670e-01    4.189e-02    6.058e-03   /
#      CHEB/ -2.587e-03   -3.105e-03   -6.147e-04   6.675e-04    -6.641e-01  /
#      CHEB/ 1.495e-01    2.089e-02    3.034e-03    2.278e-04    -7.278e-04  /
#      CHEB/ -5.131e-04   -6.544e-05   -3.650e-01   6.272e-02    1.251e-02   /
#      CHEB/ 1.427e-03    9.715e-05    -9.248e-05   -1.814e-04   -7.841e-05  /
#      CHEB/ -1.684e-01   1.749e-02    3.841e-03    1.665e-03    3.736e-04   /
#      CHEB/ -1.730e-04   -1.058e-04   -3.636e-05   -6.779e-02   3.986e-03   /
#      CHEB/ 1.969e-03    1.532e-04    1.601e-04    8.280e-05    -7.404e-05  /
#      CHEB/ -3.392e-05   -2.458e-02   2.420e-03    -2.192e-04   5.305e-04   /
#      CHEB/ 1.165e-04    -8.219e-05   -3.886e-06   -1.177e-05   -1.134e-02  /
#      CHEB/ 3.230e-03    1.218e-03    -3.197e-04   -5.205e-05   7.105e-05   /
#      CHEB/ -1.843e-05   -5.463e-06   -4.976e-03   1.957e-03    -9.427e-06  /
#      CHEB/ 3.956e-04    2.734e-05    -8.242e-05   9.271e-06    -3.578e-07  /
#  bQOOHg(+M) <=> bQOOH[O](+M)                         1.000e+00 0.000     0.000
#      TCHEB/ 180.000   1500.000 /
#      PCHEB/ 0.010     98.692   /
#      CHEB/ 10 8/
#      CHEB/ -1.445e+00   6.022e-01    -3.688e-01   -5.482e-02   1.055e-02   /
#      CHEB/ 7.971e-03    8.218e-04    -1.268e-03   1.754e+00    1.878e+00   /
#      CHEB/ 1.586e-02    -2.752e-02   -1.361e-02   -5.014e-03   1.825e-03   /
#      CHEB/ 1.841e-03    -1.161e+00   7.779e-01    1.034e-01    -2.538e-02  /
#      CHEB/ -8.262e-03   -8.109e-04   -7.040e-04   2.900e-04    -8.253e-01  /