units(length='cm', time='s', quantity='mol', act_energy='kcal/mol')

ideal_gas(name='gas',
          elements="H D T C Ci O Oi N Ne Ar He Si S F Cl Br I X",
          species="""aOOHbalkene      OH               ibutanal
                     aR               performic_acid   disub_c4ether
                     aQOOHb           H                aadduct
                     trisub_epoxy     ibutenol         aQOOH[O]
                     ipropyl          aRO2             O2
                     formic_acid      propene          aQOOHg
                     ibut_peroxyacid  HO2              CH3""",
          reactions='all',
          initial_state=state(temperature=300.0, pressure=OneAtm))

#-------------------------------------------------------------------------------
# Element data
#-------------------------------------------------------------------------------

element(symbol='Ci', atomic_mass=13.003)
element(symbol='D', atomic_mass=2.014)
element(symbol='Oi', atomic_mass=18.0)
element(symbol='T', atomic_mass=3.016)
element(symbol='X', atomic_mass=195.083)
#-------------------------------------------------------------------------------
# Species data
#-------------------------------------------------------------------------------

species(name='aOOHbalkene',
        atoms='C:3 H:6 O:3',
        thermo=(NASA([10.00, 497.41],
                     [ 3.76691735E+00,  1.51417956E-02,  1.85499431E-04,
                      -4.61303214E-07,  3.27678941E-10, -3.04693978E+04,
                       1.09903968E+01]),
                NASA([497.41, 3000.00],
                     [ 6.20882781E+00,  4.08866173E-02, -2.89934946E-05,
                       9.60428979E-09, -1.19355432E-12, -3.12737272E+04,
                      -4.72842811E+00])))

species(name='OH',
        atoms='H:1 O:1',
        thermo=(NASA([10.00, 984.14],
                     [ 3.49686242E+00,  1.83973160E-04, -9.97634499E-07,
                       1.56942783E-09, -6.10128175E-13,  3.41673934E+03,
                       1.48093120E+00]),
                NASA([984.14, 3000.00],
                     [ 3.45221464E+00, -2.95124034E-04,  7.39418622E-07,
                      -2.89309866E-10,  3.53041498E-14,  3.45751599E+03,
                       1.85813897E+00])))

species(name='ibutanal',
        atoms='C:4 H:8 O:1',
        thermo=(NASA([10.00, 683.88],
                     [ 3.57157346E+00,  3.36936906E-02, -1.78475021E-05,
                       1.31946716E-08, -7.58008388E-12, -2.76565744E+04,
                       1.05595084E+01]),
                NASA([683.88, 3000.00],
                     [ 1.29043622E+00,  4.14804229E-02, -2.27411206E-05,
                       6.08619500E-09, -6.38995128E-13, -2.72146553E+04,
                       2.16477430E+01])))

species(name='aR',
        atoms='C:4 H:9 O:1',
        thermo=(NASA([10.00, 455.22],
                     [ 3.59625500E+00,  3.38947981E-02,  7.37257079E-06,
                      -3.99275335E-08,  2.49019944E-11, -1.36804414E+04,
                       1.18269265E+01]),
                NASA([455.22, 3000.00],
                     [ 2.49586309E+00,  4.35639890E-02, -2.44887770E-05,
                       6.73363769E-09, -7.23862433E-13, -1.35802583E+04,
                       1.62696907E+01])))

species(name='performic_acid',
        atoms='C:1 H:2 O:3',
        thermo=(NASA([10.00, 590.95],
                     [ 3.92633851E+00,  4.24517168E-03,  6.71106764E-05,
                      -1.36545385E-07,  8.03337864E-11, -3.63028176E+04,
                       8.06485813E+00]),
                NASA([590.95, 3000.00],
                     [ 4.39992934E+00,  1.85411415E-02, -1.36005501E-05,
                       4.62292431E-09, -5.88463603E-13, -3.66643888E+04,
                       3.44353230E+00])))

species(name='disub_c4ether',
        atoms='C:4 H:8 O:2',
        thermo=(NASA([10.00, 413.50],
                     [ 3.78241323E+00,  1.89501763E-02,  8.65302396E-05,
                      -1.80580575E-07,  1.13656264E-10, -3.90590362E+04,
                       1.09982450E+01]),
                NASA([413.50, 3000.00],
                     [ 4.29420885E-01,  5.13851903E-02, -3.11292293E-05,
                       9.11498284E-09, -1.03192718E-12, -3.87817418E+04,
                       2.42134976E+01])))

species(name='aQOOHb',
        atoms='C:4 H:9 O:3',
        thermo=(NASA([10.00, 412.78],
                     [ 3.15498836E+00,  8.55068303E-02, -2.35307993E-04,
                       4.71983261E-07, -3.62709267E-10, -2.86054077E+04,
                       1.52522123E+01]),
                NASA([412.78, 3000.00],
                     [ 4.18099845E+00,  5.26168288E-02, -3.23998410E-05,
                       9.59389339E-09, -1.09464519E-12, -2.84946128E+04,
                       1.35782328E+01])))

species(name='H',
        atoms='H:1',
        thermo=(NASA([10.00, 794.01],
                     [ 2.50000000E+00,  1.99051163E-15, -1.19089508E-17,
                       2.10805655E-20, -1.11017699E-23,  2.54725594E+04,
                      -4.61279342E-01]),
                NASA([794.01, 3000.00],
                     [ 2.50000000E+00,  1.52667235E-14, -1.58445285E-17,
                       6.63088600E-21, -9.62111674E-25,  2.54725594E+04,
                      -4.61279342E-01])))

species(name='aadduct',
        atoms='C:4 H:9 O:3',
        thermo=(NASA([10.00, 449.84],
                     [ 3.06901904E+00,  9.20724491E-02, -2.68085092E-04,
                       5.15249897E-07, -3.68046586E-10, -3.04391861E+04,
                       1.46591735E+01]),
                NASA([449.84, 3000.00],
                     [ 4.11210745E+00,  5.16955724E-02, -2.97401041E-05,
                       8.32758939E-09, -9.08861448E-13, -3.02183452E+04,
                       1.39578825E+01])))

species(name='trisub_epoxy',
        atoms='C:4 H:8 O:2',
        thermo=(NASA([10.00, 209.19],
                     [ 3.75295042E+00,  2.37546930E-02,  1.26610110E-04,
                      -4.78364365E-07,  5.79468168E-10, -3.94119422E+04,
                       1.12739684E+01]),
                NASA([209.19, 3000.00],
                     [ 2.64185254E+00,  4.50006531E-02, -2.57361066E-05,
                       7.15266054E-09, -7.72980731E-13, -3.93654567E+04,
                       1.48960343E+01])))

species(name='ibutenol',
        atoms='C:4 H:8 O:1',
        thermo=(NASA([10.00, 135.97],
                     [ 3.95714996E+00,  5.72646980E-03,  4.63611760E-04,
                      -3.04137514E-06,  6.85019471E-09, -2.40773519E+04,
                       8.21931848E+00]),
                NASA([135.97, 3000.00],
                     [ 3.32467612E+00,  3.69033556E-02, -1.89960416E-05,
                       4.73417677E-09, -4.59705291E-13, -2.40717732E+04,
                       9.58133237E+00])))

species(name='aQOOH[O]',
        atoms='C:4 H:9 O:3',
        thermo=(NASA([10.00, 488.36],
                     [ 3.54559533E+00,  3.89536133E-02,  8.47689703E-05,
                      -2.45147486E-07,  1.76157259E-10, -2.40174842E+04,
                       1.34685910E+01]),
                NASA([488.36, 3000.00],
                     [ 3.94214913E+00,  5.71928314E-02, -3.72516212E-05,
                       1.15209013E-08, -1.35808341E-12, -2.43124452E+04,
                       9.21628964E+00])))

species(name='ipropyl',
        atoms='C:3 H:7',
        thermo=(NASA([10.00, 421.76],
                     [ 3.73943775E+00,  3.10070157E-02, -1.51196908E-04,
                       4.35367329E-07, -3.85565052E-10,  9.49213457E+03,
                       7.79448918E+00]),
                NASA([421.76, 3000.00],
                     [-4.74526725E-01,  3.20862468E-02, -1.67340747E-05,
                       4.21365136E-09, -4.13155573E-13,  1.01934458E+04,
                       2.85865912E+01])))

species(name='aRO2',
        atoms='C:4 H:9 O:3',
        thermo=(NASA([10.00, 670.36],
                     [ 3.45405325E+00,  4.74751311E-02,  9.77507759E-06,
                      -6.31019603E-08,  3.75500067E-11, -3.25883702E+04,
                       1.39284976E+01]),
                NASA([670.36, 3000.00],
                     [ 5.04137652E+00,  5.19952978E-02, -3.16472789E-05,
                       9.22798587E-09, -1.03598915E-12, -3.31155628E+04,
                       4.56056770E+00])))

species(name='O2',
        atoms='O:2',
        thermo=(NASA([10.00, 605.96],
                     [ 3.50743498E+00, -4.43860349E-04,  1.45938058E-06,
                       1.61509333E-09, -2.32050052E-12, -9.24756224E+02,
                       4.72183634E+00]),
                NASA([605.96, 3000.00],
                     [ 2.87462882E+00,  2.17840991E-03, -1.18262921E-06,
                       2.86910493E-10, -2.53297146E-14, -8.19517838E+02,
                       7.69331810E+00])))

species(name='formic_acid',
        atoms='C:1 H:2 O:2',
        thermo=(NASA([10.00, 741.38],
                     [ 4.06855785E+00, -4.74562133E-03,  4.71797900E-05,
                      -6.07490052E-08,  2.51286794E-11, -4.66880837E+04,
                       6.53681035E+00]),
                NASA([741.38, 3000.00],
                     [ 1.13645847E+00,  1.74953124E-02, -1.08112403E-05,
                       3.08075326E-09, -3.34892658E-13, -4.64297918E+04,
                       1.86149484E+01])))

species(name='propene',
        atoms='C:3 H:6',
        thermo=(NASA([10.00, 519.53],
                     [ 3.98723879E+00,  4.72040503E-04,  6.51776229E-05,
                      -9.89891002E-08,  4.91141123E-11,  1.35087928E+03,
                       6.98071210E+00]),
                NASA([519.53, 3000.00],
                     [ 3.79893331E-01,  2.82457690E-02, -1.50108430E-05,
                       3.90894069E-09, -4.00521928E-13,  1.72570663E+03,
                       2.20218922E+01])))

species(name='aQOOHg',
        atoms='C:4 H:9 O:3',
        thermo=(NASA([10.00, 455.48],
                     [ 3.62522127E+00,  2.83222320E-02,  2.08527447E-04,
                      -5.67427418E-07,  4.35169138E-10, -2.61675837E+04,
                       1.26617758E+01]),
                NASA([455.48, 3000.00],
                     [ 5.13914202E+00,  5.96270859E-02, -4.14435328E-05,
                       1.34202375E-08, -1.63474553E-12, -2.67681401E+04,
                       1.46991116E+00])))

species(name='ibut_peroxyacid',
        atoms='C:4 H:8 O:3',
        thermo=(NASA([10.00, 1386.21],
                     [ 3.50995385E+00,  4.78670384E-02, -2.40781384E-05,
                       3.71046938E-09,  3.85442115E-13, -5.01326029E+04,
                       1.22017268E+01]),
                NASA([1386.21, 3000.00],
                     [ 1.24543146E+01,  3.02396862E-02, -1.38577031E-05,
                       3.05328904E-09, -2.63982457E-13, -5.33984862E+04,
                      -3.67061828E+01])))

species(name='HO2',
        atoms='H:1 O:2',
        thermo=(NASA([10.00, 891.11],
                     [ 4.02887004E+00, -1.75769289E-03,  1.08726004E-05,
                      -1.13812972E-08,  3.90113097E-12,  4.95165001E+02,
                       4.69302008E+00]),
                NASA([891.11, 3000.00],
                     [ 3.06571044E+00,  4.28505005E-03, -2.19325920E-06,
                       5.58882699E-10, -5.61246669E-14,  5.98557610E+02,
                       8.84564156E+00])))

species(name='CH3',
        atoms='C:1 H:3',
        thermo=(NASA([10.00, 616.77],
                     [ 3.98929952E+00,  5.45150461E-04,  9.01320092E-06,
                      -1.08320497E-08,  4.38985879E-12,  1.65859883E+04,
                       2.22446886E-01]),
                NASA([616.77, 3000.00],
                     [ 3.35928237E+00,  4.63117126E-03, -9.24365433E-07,
                      -9.02514624E-11,  3.56905106E-14,  1.66637014E+04,
                       2.95743732E+00])))

#-------------------------------------------------------------------------------
# Reaction data
#-------------------------------------------------------------------------------

# Reaction 1
chebyshev_reaction('aQOOH[O] (+ M) <=> aQOOHb (+ M)',
                   Tmin=180.0, Tmax=1500.0,
                   Pmin=(0.01, 'atm'), Pmax=(98.692, 'atm'),
                   coeffs=[[-5.76500e+00,  2.71000e+00, -1.61800e-01, -1.22100e-02,  1.14400e-02,  3.37400e-03, -8.52100e-04, -6.29500e-04],
                           [-3.50900e+00,  1.55100e+00,  2.23900e-02,  2.17600e-02,  1.15900e-02, -2.75700e-03, -1.08100e-03,  6.02300e-04],
                           [-2.63400e+00,  2.62000e-01, -9.81700e-02, -4.52600e-02,  8.14600e-03,  6.13600e-03,  5.14300e-04, -3.23400e-04],
                           [-1.53300e+00, -1.14600e-01,  1.52600e-02, -3.24200e-02, -1.26800e-02,  1.61400e-03,  2.21900e-03,  7.16000e-04],
                           [-7.78900e-01, -1.86200e-01,  4.61900e-02,  4.47900e-03, -1.05900e-02, -3.80700e-03, -4.99500e-04,  2.22500e-04],
                           [-3.74400e-01, -1.20400e-01,  1.10200e-02,  1.20900e-02,  1.89400e-03, -1.88100e-03, -1.80500e-03, -6.28000e-04],
                           [-1.70000e-01, -3.04500e-02, -1.54100e-02, -1.71600e-03,  5.42200e-03,  1.95300e-03, -4.91800e-04, -5.03600e-04],
                           [-1.64900e-02,  1.30700e-02, -1.10700e-02, -9.68500e-03, -2.25700e-06,  2.52100e-03,  9.43400e-04, -2.79500e-07],
                           [ 3.58300e-02,  2.36500e-02,  3.56900e-03, -4.53500e-03, -3.74300e-03,  1.18700e-05,  9.19300e-04,  4.15900e-04],
                           [-1.87600e-02,  2.91900e-02,  1.19600e-02,  2.66700e-03, -2.13200e-03, -1.56900e-03, -9.81600e-05,  2.96500e-04]])

# Reaction 2
chebyshev_reaction('aQOOHg (+ M) <=> aQOOHb (+ M)',
                   Tmin=180.0, Tmax=1500.0,
                   Pmin=(0.01, 'atm'), Pmax=(98.692, 'atm'),
                   coeffs=[[-6.51700e+00,  2.08700e+00, -3.52200e-01, -4.30500e-02,  9.82400e-03,  5.38100e-05, -1.09600e-04,  4.19900e-04],
                           [ 1.47700e-01,  2.98700e+00,  1.02300e-01, -1.30200e-02,  9.31300e-03, -2.59900e-03, -2.21200e-03,  1.69500e-04],
                           [-3.66800e+00,  1.72300e-01,  2.84600e-01,  1.61000e-02, -1.75500e-02,  4.32200e-03,  2.61200e-03, -8.44600e-04],
                           [-2.38200e+00, -6.63700e-01,  1.29500e-01,  6.90300e-02, -1.12500e-02, -6.37300e-03,  9.30300e-04,  7.67800e-04],
                           [-1.01600e+00, -5.51300e-01, -8.38100e-02,  4.43600e-02,  1.82200e-02, -3.17200e-03, -3.02700e-03,  4.70000e-05],
                           [-3.19000e-01, -2.23100e-01, -1.35300e-01, -1.23900e-02,  1.79600e-02,  4.40300e-03, -1.30700e-03, -6.06600e-04],
                           [-5.11900e-02,  2.38600e-02, -7.13900e-02, -3.71500e-02,  1.79900e-03,  5.05800e-03,  1.15000e-03, -2.63400e-04],
                           [ 1.04200e-02,  1.08100e-01,  6.66000e-03, -2.57600e-02, -9.21100e-03,  1.57100e-03,  1.70200e-03,  1.55800e-04],
                           [-1.95200e-03,  7.63500e-02,  4.09000e-02, -5.00100e-04, -9.15000e-03, -2.13800e-03,  8.29200e-04,  3.70200e-04],
                           [-1.33100e-02,  1.42000e-02,  2.92700e-02,  1.49700e-02, -1.72400e-03, -3.31700e-03, -5.71300e-04,  3.00600e-04]])

# Reaction 3
chebyshev_reaction('aRO2 (+ M) <=> aQOOHb (+ M)',
                   Tmin=180.0, Tmax=1500.0,
                   Pmin=(0.01, 'atm'), Pmax=(98.692, 'atm'),
                   coeffs=[[-1.26100e+01,  5.14400e+00, -7.04300e-01,  2.33800e-02,  9.58400e-02, -5.63600e-02, -4.52000e-03,  1.00200e-02],
                           [ 3.96800e+00,  5.51100e-01,  1.30300e+00, -6.67200e-02, -1.04400e-01,  2.10000e-02, -9.55900e-03,  2.39800e-04],
                           [-2.77200e+00, -1.87000e-01,  1.53200e-01,  6.19600e-02, -1.38600e-02,  1.80200e-03,  1.01200e-03, -1.24500e-03],
                           [-1.51900e+00, -4.23500e-01, -1.61600e-01, -1.13900e-02,  1.07700e-02,  8.44500e-03,  2.92600e-03, -1.14200e-03],
                           [-6.76500e-01, -2.84800e-01, -1.10800e-01, -2.78000e-02,  8.81700e-04,  6.08100e-03,  2.23700e-03, -8.69000e-04],
                           [-2.86800e-01, -4.12500e-02, -4.49200e-02, -1.88900e-02, -1.72500e-03,  1.72700e-03,  7.65800e-04, -5.02300e-04],
                           [-9.47600e-02,  3.86700e-02, -5.77400e-03, -1.11500e-02, -3.92400e-03,  1.56300e-04,  6.53700e-04, -1.27600e-04],
                           [ 1.09600e-02,  1.55200e-02,  1.67700e-02, -2.86600e-03, -6.65300e-03, -4.38500e-04,  9.67000e-04,  3.95700e-05],
                           [-2.05500e-02,  6.14300e-02,  6.62400e-03, -8.64200e-04, -9.12200e-04, -1.43000e-03, -1.31500e-04,  4.44300e-04],
                           [ 2.72700e-02, -1.51300e-03,  1.90900e-02,  5.82000e-03, -1.87200e-03, -5.79900e-04, -2.19200e-04, -2.70700e-05]])

# Reaction 4
chebyshev_reaction('aadduct (+ M) <=> aQOOHb (+ M)',
                   Tmin=180.0, Tmax=1500.0,
                   Pmin=(0.01, 'atm'), Pmax=(98.692, 'atm'),
                   coeffs=[[-1.32900e+01,  4.65400e+00, -1.02000e+00,  4.70000e-02,  1.33000e-01, -6.31600e-02, -1.02100e-02,  1.21700e-02],
                           [ 5.89900e-01,  1.98000e-01,  1.44300e+00, -4.09200e-02, -1.31400e-01,  2.03300e-02, -3.57800e-03, -7.95600e-04],
                           [-3.16000e+00, -3.41900e-01,  1.74500e-01,  7.54300e-02, -1.84100e-02, -3.46700e-04,  1.75900e-03, -8.78700e-04],
                           [-1.64000e+00, -4.03900e-01, -1.50300e-01, -1.55200e-02,  9.01900e-03,  9.96600e-03,  3.02000e-03, -1.55200e-03],
                           [-7.43900e-01, -2.41900e-01, -9.81600e-02, -3.11100e-02, -5.33800e-04,  7.42500e-03,  2.34300e-03, -1.21200e-03],
                           [-3.22800e-01, -2.74500e-02, -4.38700e-02, -1.84100e-02, -1.29300e-03,  1.77100e-03,  5.70100e-04, -4.99800e-04],
                           [-8.28000e-02,  2.95700e-02, -7.08200e-03, -1.06000e-02, -3.62600e-03,  2.15500e-06,  5.03600e-04, -7.04000e-05],
                           [ 1.57800e-02,  1.56900e-02,  1.67300e-02, -2.97700e-03, -6.85800e-03, -4.43000e-04,  9.81000e-04,  4.68100e-05],
                           [-4.56500e-02,  7.27000e-02,  5.95300e-03, -8.13200e-04, -9.81300e-04, -1.39600e-03, -8.78900e-05,  4.22100e-04],
                           [ 1.70200e-02, -4.24000e-03,  2.05100e-02,  6.24500e-03, -1.99100e-03, -6.35600e-04, -1.87600e-04, -1.95000e-05]])

# Reaction 5
chebyshev_reaction('O2 + aR (+ M) <=> aQOOHb (+ M)',
                   Tmin=180.0, Tmax=1500.0,
                   Pmin=(0.01, 'atm'), Pmax=(98.692, 'atm'),
                   coeffs=[[ 2.73400e+00,  5.27400e+00, -1.35500e+00,  5.59900e-03,  1.09700e-01, -3.98600e-02, -3.77600e-03,  6.10900e-03],
                           [-1.96400e+00,  2.60500e-02,  1.42500e+00, -3.31600e-01, -1.00200e-01,  7.28000e-02, -2.69100e-03, -8.39200e-03],
                           [-1.39000e+00, -2.53400e-01,  4.08800e-01,  9.87400e-02, -7.31300e-02, -9.23300e-03,  1.15400e-02, -6.87500e-04],
                           [-8.87300e-01, -4.12500e-01,  8.02700e-02,  9.62900e-02, -4.92600e-03, -1.40500e-02,  1.24900e-03,  1.08100e-03],
                           [-4.75000e-01, -3.03400e-01, -4.46100e-02,  4.05900e-02,  1.36400e-02, -3.58200e-03, -1.04900e-03,  2.71200e-04],
                           [-2.05800e-01, -1.52700e-01, -6.44300e-02,  2.15700e-03,  8.63600e-03,  1.33700e-03, -1.07300e-04,  1.64400e-04],
                           [-6.21000e-02, -3.98500e-02, -4.09200e-02, -1.19400e-02,  9.29500e-04,  1.29800e-03,  4.90600e-04,  2.80800e-04],
                           [ 7.97500e-05,  1.83600e-02, -1.12400e-02, -1.03800e-02, -3.07900e-03, -6.48800e-05,  3.70600e-04,  2.88200e-04],
                           [ 1.39600e-02,  3.17200e-02,  8.07000e-03, -2.65100e-03, -3.24500e-03, -1.04100e-03,  1.36200e-05,  1.80700e-04],
                           [ 1.04400e-02,  2.31300e-02,  1.28900e-02,  3.36400e-03, -9.60200e-04, -1.16400e-03, -3.21700e-04,  4.25500e-05]])
#  aQOOHb(+M) <=> aQOOH[O](+M)                         1.000e+00 0.000     0.000
#      TCHEB/ 180.000   1500.000 /
#      PCHEB/ 0.010     98.692   /
#      CHEB/ 10 8/
#      CHEB/ -1.346e+01   2.710e+00    -1.618e-01   -1.221e-02   1.144e-02   /
#      CHEB/ 3.374e-03    -8.521e-04   -6.295e-04   1.183e+00    1.551e+00   /
#      CHEB/ 2.239e-02    2.176e-02    1.159e-02    -2.757e-03   -1.081e-03  /
#      CHEB/ 6.023e-04    -2.556e+00   2.620e-01    -9.817e-02   -4.526e-02  /
#      CHEB/ 8.146e-03    6.136e-03    5.143e-04    -3.234e-04   -1.487e+00  /
#      CHEB/ -1.146e-01   1.526e-02    -3.242e-02   -1.268e-02   1.614e-03   /
#      CHEB/ 2.219e-03    7.160e-04    -7.635e-01   -1.862e-01   4.619e-02   /
#      CHEB/ 4.479e-03    -1.059e-02   -3.807e-03   -4.995e-04   2.225e-04   /
#      CHEB/ -3.696e-01   -1.204e-01   1.102e-02    1.209e-02    1.894e-03   /
#      CHEB/ -1.881e-03   -1.805e-03   -6.280e-04   -1.682e-01   -3.045e-02  /
#      CHEB/ -1.541e-02   -1.716e-03   5.422e-03    1.953e-03    -4.918e-04  /
#      CHEB/ -5.036e-04   -1.577e-02   1.307e-02    -1.107e-02   -9.685e-03  /
#      CHEB/ -2.257e-06   2.521e-03    9.434e-04    -2.795e-07   3.603e-02   /
#      CHEB/ 2.365e-02    3.569e-03    -4.535e-03   -3.743e-03   1.187e-05   /
#      CHEB/ 9.193e-04    4.159e-04    -1.875e-02   2.919e-02    1.196e-02   /
#      CHEB/ 2.667e-03    -2.132e-03   -1.569e-03   -9.816e-05   2.965e-04   /

# Reaction 6
chebyshev_reaction('aQOOHg (+ M) <=> aQOOH[O] (+ M)',
                   Tmin=180.0, Tmax=1500.0,
                   Pmin=(0.01, 'atm'), Pmax=(98.692, 'atm'),
                   coeffs=[[-5.96400e+00,  2.31400e+00, -1.44800e-01, -2.71300e-03,  1.67200e-03,  2.34000e-03,  2.10400e-04, -2.89000e-04],
                           [-3.71300e+00,  9.72400e-01,  8.36500e-02,  5.80400e-02,  2.63100e-03, -6.48200e-03, -3.08400e-04,  8.97900e-04],
                           [-4.06900e+00, -4.33900e-03, -7.30400e-02, -6.53600e-04,  1.46700e-02,  2.63200e-03, -8.18600e-04, -6.71800e-04],
                           [-2.09200e+00, -2.01300e-01, -4.20200e-02, -1.30100e-02,  4.10200e-04,  1.72000e-03,  1.16600e-03,  3.43000e-04],
                           [-8.51700e-01, -1.73700e-01, -4.74700e-02, -5.50600e-03, -3.04600e-03, -1.74800e-03, -5.62700e-05,  4.52000e-04],
                           [-2.89800e-01, -3.47700e-02, -4.82700e-02, -7.47700e-03,  1.07900e-03, -1.07600e-03, -9.18100e-04, -1.09300e-04],
                           [-9.96300e-02,  7.96500e-02, -1.50300e-02, -1.29300e-02,  8.13900e-04,  9.47600e-04, -2.17500e-04, -2.27800e-04],
                           [-9.52100e-03,  8.49500e-02,  2.35100e-02, -7.43300e-03, -3.40400e-03,  9.77000e-04,  6.27400e-04, -6.99200e-05],
                           [ 4.80000e-03,  3.08000e-02,  3.26500e-02,  6.05200e-03, -3.56900e-03, -1.07400e-03,  4.46100e-04,  2.21500e-04],
                           [-5.51900e-02, -6.20000e-03,  1.50400e-02,  1.19600e-02,  1.32600e-03, -1.89800e-03, -5.92700e-04,  2.03700e-04]])

# Reaction 7
chebyshev_reaction('aRO2 (+ M) <=> aQOOH[O] (+ M)',
                   Tmin=180.0, Tmax=1500.0,
                   Pmin=(0.01, 'atm'), Pmax=(98.692, 'atm'),
                   coeffs=[[-1.10500e+01,  7.64700e+00, -1.36400e+00, -1.96300e-01,  2.10100e-01, -2.96800e-02, -2.20900e-02,  1.05100e-02],
                           [ 2.57000e+00, -1.04800e+00,  1.17800e+00, -1.19200e-01, -1.51900e-01,  6.24400e-02,  5.06800e-03, -1.11500e-02],
                           [-3.70000e+00, -3.57500e-01,  1.10000e-01,  6.11200e-02, -2.89000e-02, -3.52800e-03,  4.94100e-03, -1.68700e-03],
                           [-1.58600e+00, -1.84900e-01, -2.20400e-02,  2.52600e-02, -8.08400e-04, -2.40300e-03,  1.15100e-03, -4.88500e-04],
                           [-6.66600e-01, -1.42200e-02, -3.39800e-02, -5.27800e-03,  5.28600e-03, -1.08200e-03, -6.91500e-04,  7.09900e-04],
                           [-2.81700e-01, -9.44900e-03,  2.71500e-03, -2.75900e-04, -3.83500e-03, -9.40100e-04,  1.23800e-03,  1.02000e-04],
                           [-1.24500e-01, -2.77800e-02,  2.43900e-02,  5.21200e-03, -6.05000e-03,  2.52800e-04,  1.25200e-03, -5.82900e-04],
                           [-4.38600e-02,  1.48800e-02, -2.56200e-04,  3.91000e-03,  1.83600e-03, -1.22700e-03, -7.83700e-05,  4.67100e-04],
                           [-2.11900e-02,  4.51100e-02, -1.93600e-02, -3.71600e-03,  7.97100e-03, -1.36100e-04, -2.28600e-03,  5.89800e-04],
                           [-4.84400e-03, -4.21300e-02,  1.95100e-02,  1.08800e-03, -7.07800e-03,  2.52200e-03,  1.80700e-03, -1.30900e-03]])

# Reaction 8
chebyshev_reaction('aadduct (+ M) <=> aQOOH[O] (+ M)',
                   Tmin=180.0, Tmax=1500.0,
                   Pmin=(0.01, 'atm'), Pmax=(98.692, 'atm'),
                   coeffs=[[-1.17300e+01,  7.15500e+00, -1.67700e+00, -1.73300e-01,  2.47200e-01, -3.63200e-02, -2.78300e-02,  1.26400e-02],
                           [-8.04600e-01, -1.40700e+00,  1.32100e+00, -9.46800e-02, -1.79000e-01,  6.20800e-02,  1.09700e-02, -1.22300e-02],
                           [-4.08500e+00, -5.18000e-01,  1.34700e-01,  7.34600e-02, -3.36000e-02, -5.38700e-03,  5.62000e-03, -1.36100e-03],
                           [-1.70300e+00, -1.70100e-01, -7.70800e-03,  2.01600e-02, -2.69300e-03, -6.32000e-04,  1.19000e-03, -9.35200e-04],
                           [-7.32000e-01,  2.48700e-02, -1.88300e-02, -9.39000e-03,  3.75500e-03,  4.66100e-04, -6.24700e-04,  3.35100e-04],
                           [-3.16100e-01,  1.45100e-03,  5.66500e-03, -4.17500e-04, -3.49600e-03, -7.39400e-04,  1.01700e-03,  7.76100e-05],
                           [-1.11400e-01, -3.89200e-02,  2.44600e-02,  5.29000e-03, -5.82300e-03,  2.13500e-04,  1.08800e-03, -5.47200e-04],
                           [-3.83700e-02,  1.37200e-02,  6.53700e-04,  3.46400e-03,  1.58000e-03, -1.15200e-03, -7.04300e-05,  4.58200e-04],
                           [-4.59200e-02,  5.55900e-02, -1.94100e-02, -3.89800e-03,  7.87000e-03, -4.91400e-05, -2.24400e-03,  5.56100e-04],
                           [-1.49400e-02, -4.52600e-02,  2.13200e-02,  1.35300e-03, -7.21400e-03,  2.49900e-03,  1.83900e-03, -1.30900e-03]])

# Reaction 9
chebyshev_reaction('O2 + aR (+ M) <=> aQOOH[O] (+ M)',
                   Tmin=180.0, Tmax=1500.0,
                   Pmin=(0.01, 'atm'), Pmax=(98.692, 'atm'),
                   coeffs=[[-1.87900e+00,  3.90500e+00,  8.16800e-01,  4.08500e-01,  2.24800e-02, -2.26100e-01, -1.07400e-01,  2.00100e-02],
                           [-9.39600e-01, -2.33700e+00, -7.94600e-01, -4.12100e-01,  4.38000e-02,  3.55700e-01,  1.30700e-01, -5.19100e-02],
                           [-1.31900e+00,  2.75800e-01, -2.40900e-01, -5.71100e-02, -7.83500e-02, -1.22900e-01,  1.98500e-02,  4.98900e-02],
                           [-8.12900e-01,  1.90100e-01,  2.35500e-01,  2.89600e-02, -1.71900e-02, -4.23700e-02, -6.58000e-02, -3.30400e-03],
                           [-3.12700e-01, -2.63800e-03,  3.19500e-02,  5.70300e-02,  2.47000e-02,  3.19300e-02,  1.05100e-02, -3.15700e-02],
                           [-1.64800e-01, -1.41500e-02, -4.34700e-02, -9.42700e-03,  2.33600e-02,  1.36300e-02,  1.84400e-02,  1.36200e-02],
                           [-1.26600e-01, -3.88700e-03, -4.24700e-04, -1.38500e-02, -1.22500e-02, -3.52000e-03, -2.19300e-03,  9.86300e-03],
                           [-2.07500e-02, -4.30000e-03,  2.35200e-03, -7.67000e-04, -9.53100e-03, -7.18800e-03, -3.08100e-03, -4.98100e-03],
                           [ 3.01200e-02, -8.00800e-03, -1.39800e-03,  1.90700e-03,  2.31700e-03, -5.32600e-04, -2.04700e-03, -3.08500e-03],
                           [-3.26200e-02,  1.50800e-02,  3.08900e-04,  6.99100e-04,  3.65400e-03,  1.13900e-03, -3.27800e-04,  9.81000e-04]])
#  aQOOHb(+M) <=> aQOOHg(+M)                           1.000e+00 0.000     0.000
#      TCHEB/ 180.000   1500.000 /
#      PCHEB/ 0.010     98.692   /
#      CHEB/ 10 8/
#      CHEB/ -1.150e+01   2.087e+00    -3.522e-01   -4.305e-02   9.824e-03   /
#      CHEB/ 5.381e-05    -1.096e-04   4.199e-04    2.862e+00    2.987e+00   /
#      CHEB/ 1.023e-01    -1.302e-02   9.313e-03    -2.599e-03   -2.212e-03  /
#      CHEB/ 1.695e-04    -3.445e+00   1.723e-01    2.846e-01    1.610e-02   /
#      CHEB/ -1.755e-02   4.322e-03    2.612e-03    -8.446e-04   -2.288e+00  /
#      CHEB/ -6.637e-01   1.295e-01    6.903e-02    -1.125e-02   -6.373e-03  /
#      CHEB/ 9.303e-04    7.678e-04    -9.882e-01   -5.513e-01   -8.381e-02  /
#      CHEB/ 4.436e-02    1.822e-02    -3.172e-03   -3.027e-03   4.700e-05   /
#      CHEB/ -3.111e-01   -2.231e-01   -1.353e-01   -1.239e-02   1.796e-02   /
#      CHEB/ 4.403e-03    -1.307e-03   -6.066e-04   -4.868e-02   2.386e-02   /
#      CHEB/ -7.139e-02   -3.715e-02   1.799e-03    5.058e-03    1.150e-03   /
#      CHEB/ -2.634e-04   1.115e-02    1.081e-01    6.660e-03    -2.576e-02  /
#      CHEB/ -9.211e-03   1.571e-03    1.702e-03    1.558e-04    -1.931e-03  /
#      CHEB/ 7.635e-02    4.090e-02    -5.001e-04   -9.150e-03   -2.138e-03  /
#      CHEB/ 8.292e-04    3.702e-04    -1.345e-02   1.420e-02    2.927e-02   /
#      CHEB/ 1.497e-02    -1.724e-03   -3.317e-03   -5.713e-04   3.006e-04   /
#  aQOOH[O](+M) <=> aQOOHg(+M)                         1.000e+00 0.000     0.000
#      TCHEB/ 180.000   1500.000 /
#      PCHEB/ 0.010     98.692   /
#      CHEB/ 10 8/
#      CHEB/ -3.255e+00   2.314e+00    -1.448e-01   -2.713e-03   1.672e-03   /
#      CHEB/ 2.340e-03    2.104e-04    -2.890e-04   -5.691e+00   9.724e-01   /
#      CHEB/ 8.365e-02    5.804e-02    2.631e-03    -6.482e-03   -3.084e-04  /
#      CHEB/ 8.979e-04    -3.924e+00   -4.339e-03   -7.304e-02   -6.536e-04  /
#      CHEB/ 1.467e-02    2.632e-03    -8.186e-04   -6.718e-04   -2.044e+00  /
#      CHEB/ -2.013e-01   -4.202e-02   -1.301e-02   4.102e-04    1.720e-03   /
#      CHEB/ 1.166e-03    3.430e-04    -8.389e-01   -1.737e-01   -4.747e-02  /
#      CHEB/ -5.506e-03   -3.046e-03   -1.748e-03   -5.627e-05   4.520e-04   /