units(length='cm', time='s', quantity='mol', act_energy='kcal/mol')

ideal_gas(name='gas',
          elements="H D T C Ci O Oi N Ne Ar He Si S F Cl Br I X",
          species="""OH             bQOOH[O]       acetone
                     H2O            balkoxyketone  ibutenol
                     trisub_epoxy   bQOOHg         CH2O
                     galkene        O2             bR
                     bQOOHa         bRO2           disub_epoxy
                     HO2""",
          reactions='all',
          initial_state=state(temperature=300.0, pressure=OneAtm))

#-------------------------------------------------------------------------------
# Element data
#-------------------------------------------------------------------------------

element(symbol='Ci', atomic_mass=13.003)
element(symbol='D', atomic_mass=2.014)
element(symbol='Oi', atomic_mass=18.0)
element(symbol='T', atomic_mass=3.016)
element(symbol='X', atomic_mass=195.083)
#-------------------------------------------------------------------------------
# Species data
#-------------------------------------------------------------------------------

species(name='OH',
        atoms='H:1 O:1',
        thermo=(NASA([10.00, 984.14],
                     [ 3.49686242E+00,  1.83973160E-04, -9.97634499E-07,
                       1.56942783E-09, -6.10128175E-13,  3.41673934E+03,
                       1.48093120E+00]),
                NASA([984.14, 3000.00],
                     [ 3.45221464E+00, -2.95124034E-04,  7.39418622E-07,
                      -2.89309866E-10,  3.53041498E-14,  3.45751599E+03,
                       1.85813897E+00])))

species(name='bQOOH[O]',
        atoms='C:4 H:9 O:3',
        thermo=(NASA([10.00, 338.69],
                     [ 3.60915854E+00,  3.39069566E-02,  2.22227265E-04,
                      -8.23527342E-07,  8.56246333E-10, -2.18219812E+04,
                       1.23284605E+01]),
                NASA([338.69, 3000.00],
                     [ 5.03198881E+00,  5.46235886E-02, -3.56935806E-05,
                       1.12371751E-08, -1.35390171E-12, -2.21335639E+04,
                       3.82760723E+00])))

species(name='acetone',
        atoms='C:3 H:6 O:1',
        thermo=(NASA([10.00, 414.35],
                     [ 3.73496166E+00,  3.05743218E-02, -1.26253585E-04,
                       3.66080978E-07, -3.31430437E-10, -2.81817918E+04,
                       8.24936012E+00]),
                NASA([414.35, 3000.00],
                     [ 1.70010292E-01,  3.28431468E-02, -1.80960132E-05,
                       4.82960690E-09, -5.02388538E-13, -2.76104087E+04,
                       2.56372653E+01])))

species(name='H2O',
        atoms='H:2 O:1',
        thermo=(NASA([10.00, 773.84],
                     [ 4.00473541E+00, -2.39729134E-04,  8.11862955E-07,
                       1.47891862E-09, -1.19783539E-12, -3.03533807E+04,
                      -9.96254147E-02]),
                NASA([773.84, 3000.00],
                     [ 3.52133374E+00,  1.05377009E-03,  6.40722099E-07,
                      -3.86240235E-10,  5.49243294E-14, -3.02424794E+04,
                       2.34173094E+00])))

species(name='balkoxyketone',
        atoms='C:4 H:7 O:2',
        thermo=(NASA([10.00, 269.93],
                     [ 3.81931151E+00,  1.68519318E-02,  2.42742224E-04,
                      -9.64821161E-07,  1.18509335E-09, -1.99123986E+04,
                       1.20521854E+01]),
                NASA([269.93, 3000.00],
                     [ 3.57555944E+00,  4.28868089E-02, -2.65390705E-05,
                       7.99659117E-09, -9.32983470E-13, -1.99809267E+04,
                       1.13957990E+01])))

species(name='ibutenol',
        atoms='C:4 H:8 O:1',
        thermo=(NASA([10.00, 135.97],
                     [ 3.95714996E+00,  5.72646980E-03,  4.63611760E-04,
                      -3.04137514E-06,  6.85019471E-09, -2.42874717E+04,
                       8.21931848E+00]),
                NASA([135.97, 3000.00],
                     [ 3.32467612E+00,  3.69033556E-02, -1.89960416E-05,
                       4.73417677E-09, -4.59705291E-13, -2.42818930E+04,
                       9.58133237E+00])))

species(name='trisub_epoxy',
        atoms='C:4 H:8 O:2',
        thermo=(NASA([10.00, 209.19],
                     [ 3.75295042E+00,  2.37546930E-02,  1.26610110E-04,
                      -4.78364365E-07,  5.79468168E-10, -3.95762936E+04,
                       1.12739684E+01]),
                NASA([209.19, 3000.00],
                     [ 2.64185254E+00,  4.50006531E-02, -2.57361066E-05,
                       7.15266054E-09, -7.72980731E-13, -3.95298080E+04,
                       1.48960343E+01])))

species(name='bQOOHg',
        atoms='C:4 H:9 O:3',
        thermo=(NASA([10.00, 441.09],
                     [ 3.56595280E+00,  3.36073467E-02,  2.03462772E-04,
                      -5.98977617E-07,  4.83271168E-10, -2.40549717E+04,
                       1.33537891E+01]),
                NASA([441.09, 3000.00],
                     [ 6.09031192E+00,  5.80517622E-02, -4.06392697E-05,
                       1.32574026E-08, -1.62501077E-12, -2.47381572E+04,
                      -1.97849715E+00])))

species(name='CH2O',
        atoms='C:1 H:2 O:1',
        thermo=(NASA([10.00, 601.31],
                     [ 4.03190845E+00, -1.93233367E-03,  8.89743345E-06,
                       2.98105926E-09, -7.90813886E-12, -1.42276270E+04,
                       3.47574660E+00]),
                NASA([601.31, 3000.00],
                     [ 1.40134195E+00,  9.48858016E-03, -4.43088317E-06,
                       9.48452194E-10, -7.43790219E-14, -1.38013869E+04,
                       1.57423780E+01])))

species(name='galkene',
        atoms='C:4 H:8 O:1',
        thermo=(NASA([10.00, 383.47],
                     [ 3.84035604E+00,  1.20378740E-02,  1.87486319E-04,
                      -5.44759148E-07,  4.80711015E-10, -2.39639654E+04,
                       1.02570291E+01]),
                NASA([383.47, 3000.00],
                     [ 4.00413385E+00,  3.79025144E-02, -2.15435710E-05,
                       6.15213311E-09, -6.97446345E-13, -2.41792547E+04,
                       6.98052628E+00])))

species(name='O2',
        atoms='O:2',
        thermo=(NASA([10.00, 605.96],
                     [ 3.50743498E+00, -4.43860349E-04,  1.45938058E-06,
                       1.61509333E-09, -2.32050052E-12, -9.24756224E+02,
                       4.72183634E+00]),
                NASA([605.96, 3000.00],
                     [ 2.87462882E+00,  2.17840991E-03, -1.18262921E-06,
                       2.86910493E-10, -2.53297146E-14, -8.19517838E+02,
                       7.69331810E+00])))

species(name='bR',
        atoms='C:4 H:9 O:1',
        thermo=(NASA([10.00, 483.43],
                     [ 3.38164846E+00,  5.97142637E-02, -1.58320095E-04,
                       3.04908893E-07, -2.13091806E-10, -1.47561247E+04,
                       1.09226843E+01]),
                NASA([483.43, 3000.00],
                     [ 2.33428824E+00,  4.22094427E-02, -2.28029290E-05,
                       6.04614564E-09, -6.30240159E-13, -1.43490428E+04,
                       1.83772893E+01])))

species(name='bQOOHa',
        atoms='C:4 H:9 O:3',
        thermo=(NASA([10.00, 390.53],
                     [ 3.54969236E+00,  3.76592474E-02,  1.76622653E-04,
                      -5.98063750E-07,  5.45069236E-10, -2.57519584E+04,
                       1.31518761E+01]),
                NASA([390.53, 3000.00],
                     [ 5.33564209E+00,  5.64935715E-02, -3.83214298E-05,
                       1.22990604E-08, -1.49549987E-12, -2.61745683E+04,
                       2.59015836E+00])))

species(name='bRO2',
        atoms='C:4 H:9 O:3',
        thermo=(NASA([10.00, 461.39],
                     [ 3.53964713E+00,  3.88723795E-02,  9.57420148E-05,
                      -2.80380499E-07,  2.09647462E-10, -3.40540714E+04,
                       1.18803618E+01]),
                NASA([461.39, 3000.00],
                     [ 3.47201723E+00,  6.00510247E-02, -4.00567321E-05,
                       1.25663813E-08, -1.49496682E-12, -3.42670182E+04,
                       9.77903975E+00])))

species(name='disub_epoxy',
        atoms='C:4 H:8 O:2',
        thermo=(NASA([10.00, 549.41],
                     [ 3.89863211E+00,  5.97532637E-03,  1.66685676E-04,
                      -3.10743768E-07,  1.78330192E-10, -3.64885672E+04,
                       1.13847308E+01]),
                NASA([549.41, 3000.00],
                     [-6.40277648E-01,  6.05960003E-02, -4.13427220E-05,
                       1.31555461E-08, -1.57685017E-12, -3.63154504E+04,
                       2.76005436E+01])))

species(name='HO2',
        atoms='H:1 O:2',
        thermo=(NASA([10.00, 891.11],
                     [ 4.02887004E+00, -1.75769289E-03,  1.08726004E-05,
                      -1.13812972E-08,  3.90113097E-12,  4.95165001E+02,
                       4.69302008E+00]),
                NASA([891.11, 3000.00],
                     [ 3.06571044E+00,  4.28505005E-03, -2.19325920E-06,
                       5.58882699E-10, -5.61246669E-14,  5.98557610E+02,
                       8.84564156E+00])))

#-------------------------------------------------------------------------------
# Reaction data
#-------------------------------------------------------------------------------

# Reaction 1
chebyshev_reaction('bQOOHg (+ M) <=> bRO2 (+ M)',
                   Tmin=180.0, Tmax=1500.0,
                   Pmin=(0.01, 'atm'), Pmax=(98.692, 'atm'),
                   coeffs=[[-7.23700e-01,  6.51000e-01, -5.06400e-02,  1.26000e-02, -1.50800e-04, -6.38700e-04,  2.67400e-04, -3.17100e-05],
                           [ 1.62800e+00,  9.33700e-01, -4.10600e-02,  1.29700e-02,  1.01300e-03, -8.33000e-04,  2.85300e-04, -1.76700e-05],
                           [-2.59200e+00,  2.29500e-01,  3.94700e-02, -4.74400e-05,  1.00700e-03,  2.23700e-04, -8.75000e-05,  2.45400e-05],
                           [-1.74300e+00, -2.00700e-01,  3.21800e-02,  2.75800e-03, -4.43000e-04,  4.16200e-04, -3.80600e-05, -7.06100e-06],
                           [-8.66000e-01, -2.35300e-01, -2.11100e-02,  5.08500e-03,  8.00800e-05, -1.98600e-04,  9.38300e-05, -3.23600e-06],
                           [-3.18600e-01, -1.11700e-01, -4.25600e-02, -2.09300e-03,  1.09800e-03, -2.32200e-04, -2.28000e-05,  2.69600e-05],
                           [-9.00000e-02, -1.24600e-02, -2.52600e-02, -8.67500e-03, -1.13300e-05,  2.43200e-04, -8.17100e-05,  4.99000e-06],
                           [-8.07900e-03,  3.08000e-02, -3.34400e-04, -7.19400e-03, -1.94000e-03,  2.07200e-04,  6.21900e-05, -1.40600e-05],
                           [ 1.34700e-02,  3.71300e-02,  1.37900e-02, -8.07200e-04, -2.19400e-03, -3.56000e-04,  1.23400e-04,  2.08200e-05],
                           [ 2.15600e-02,  2.36500e-02,  1.50500e-02,  4.57900e-03, -5.56900e-04, -6.51100e-04, -3.62300e-05,  3.84200e-05]])

# Reaction 2
chebyshev_reaction('bQOOHa (+ M) <=> bRO2 (+ M)',
                   Tmin=180.0, Tmax=1500.0,
                   Pmin=(0.01, 'atm'), Pmax=(98.692, 'atm'),
                   coeffs=[[ 4.31300e-01,  2.25900e+00, -3.34000e-01,  2.21900e-02,  2.86500e-02, -1.13400e-02, -1.17100e-03,  1.98800e-03],
                           [-3.27100e+00, -1.77800e-01,  4.33800e-01,  9.78400e-04, -2.50000e-02,  8.89500e-03, -8.80800e-04, -1.77000e-03],
                           [-2.83300e+00, -4.15800e-02, -2.54400e-02,  3.41500e-03, -2.27900e-03,  9.68500e-04,  1.15100e-03, -4.33700e-04],
                           [-1.30300e+00,  6.45200e-03, -5.59000e-02, -2.03600e-02, -2.92300e-03,  1.04500e-04,  3.46700e-04,  1.42500e-04],
                           [-5.73000e-01,  3.44200e-03, -2.49200e-02, -1.00600e-02,  1.11700e-04, -2.45600e-04, -1.85700e-04,  7.31800e-05],
                           [-2.43500e-01, -2.34900e-02, -1.35200e-02,  1.14100e-03, -3.26400e-05,  7.14300e-04,  3.00900e-04, -1.11600e-04],
                           [-1.38000e-01, -1.10300e-02, -8.74200e-03, -3.25700e-03,  2.01100e-03,  1.85400e-04, -1.11600e-05,  1.30700e-04],
                           [-2.84900e-02, -3.10000e-02,  2.03900e-03,  2.19500e-03, -2.14300e-03,  7.53800e-05,  3.05900e-04, -1.37700e-04],
                           [-6.84600e-02,  5.09300e-02, -7.25300e-03, -4.18700e-03,  2.10400e-03, -3.75900e-05, -5.84600e-04,  1.57400e-04],
                           [ 2.43600e-02, -2.46300e-02,  8.78600e-03,  1.41800e-03, -8.50100e-04, -1.47300e-04,  2.18900e-04, -6.15100e-05]])

# Reaction 3
chebyshev_reaction('bQOOH[O] (+ M) <=> bRO2 (+ M)',
                   Tmin=180.0, Tmax=1500.0,
                   Pmin=(0.01, 'atm'), Pmax=(98.692, 'atm'),
                   coeffs=[[ 4.74500e+00,  1.57200e+00, -1.88000e-01, -2.78700e-02,  9.61100e-03,  4.66900e-03, -6.54700e-04, -7.81800e-04],
                           [-5.82600e+00,  4.19600e-01,  8.86500e-02,  5.93200e-03, -5.17400e-03, -1.23600e-03,  8.60300e-04,  4.19100e-04],
                           [-3.37900e+00, -2.43600e-01, -9.84100e-02,  5.64200e-03,  1.52400e-02,  2.47200e-03, -2.01800e-03, -7.30300e-04],
                           [-1.58900e+00, -4.05000e-02, -6.16700e-02, -2.60100e-02, -2.66200e-03,  2.86400e-03,  1.20700e-03, -2.09200e-04],
                           [-7.40600e-01,  6.23900e-02,  1.97600e-02, -9.93600e-04, -5.64300e-03, -3.02300e-03, -2.26200e-04,  5.20900e-04],
                           [-3.72000e-01,  2.61800e-02,  1.48300e-02,  6.28900e-03,  3.02200e-03,  4.50600e-04, -7.41900e-04, -5.12000e-04],
                           [-1.70500e-01, -1.83100e-02, -2.74500e-03, -1.44100e-03,  6.70600e-04,  1.60000e-03,  7.81000e-04, -7.12400e-05],
                           [-8.16000e-02,  9.80500e-03, -5.44600e-04, -5.00900e-03, -2.68200e-03, -2.67900e-04,  4.31800e-04,  2.71100e-04],
                           [-3.74300e-03, -5.62000e-03,  3.10700e-03,  1.73700e-03, -6.08600e-04, -8.18300e-04, -3.27600e-04, -1.43400e-05],
                           [ 5.08600e-03,  2.86000e-03, -8.50800e-04,  5.89200e-04,  1.14100e-03,  6.25100e-04,  5.02900e-05, -1.61500e-04]])

# Reaction 4
chebyshev_reaction('O2 + bR (+ M) <=> bRO2 (+ M)',
                   Tmin=180.0, Tmax=1500.0,
                   Pmin=(0.01, 'atm'), Pmax=(98.692, 'atm'),
                   coeffs=[[ 1.38200e+01,  1.04900e+00, -8.65100e-02,  5.28400e-04,  6.36900e-04,  1.37600e-04, -3.91000e-05,  1.48300e-06],
                           [-3.47600e+00,  8.32300e-01,  5.46500e-02, -5.27700e-03, -1.32200e-03, -4.69100e-05,  3.81100e-05,  5.50400e-06],
                           [-1.94000e+00,  1.96500e-01,  3.53300e-02,  4.32400e-03,  1.20000e-04, -1.01400e-04, -2.41200e-05, -1.87100e-06],
                           [-1.03200e+00,  1.76400e-03,  6.48000e-03,  1.87900e-03,  4.29800e-04,  4.89700e-05,  4.90100e-06, -3.04900e-06],
                           [-5.20100e-01, -3.03700e-02, -2.58900e-03, -3.12600e-05,  9.29400e-05,  2.08900e-05,  8.83700e-06,  7.38400e-07],
                           [-2.43300e-01, -2.93100e-02, -3.45100e-03, -2.94900e-04, -8.27000e-06, -8.21800e-06,  3.71000e-07,  3.45200e-07],
                           [-1.00200e-01, -1.99000e-02, -3.10300e-03, -3.17300e-04, -1.06400e-05, -2.03600e-06, -9.29300e-08, -1.38200e-07],
                           [-3.04200e-02, -1.03900e-02, -2.16800e-03, -2.96000e-04, -2.44000e-05, -2.85900e-07,  5.24600e-07, -1.04200e-08],
                           [-2.74600e-03, -1.58300e-03, -1.10500e-03, -2.42900e-04, -3.71800e-05, -1.08700e-06, -1.06000e-07,  6.28800e-08],
                           [ 5.44700e-03,  2.95900e-03, -1.10100e-04, -1.22400e-04, -3.18900e-05, -3.17500e-06, -6.25100e-07,  1.08600e-08]])
#  bRO2(+M) <=> bQOOHg(+M)                             1.000e+00 0.000     0.000
#      TCHEB/ 180.000   1500.000 /
#      PCHEB/ 0.010     98.692   /
#      CHEB/ 10 8/
#      CHEB/ -1.328e+01   6.510e-01    -5.064e-02   1.260e-02    -1.508e-04  /
#      CHEB/ -6.387e-04   2.674e-04    -3.171e-05   1.264e+01    9.337e-01   /
#      CHEB/ -4.106e-02   1.297e-02    1.013e-03    -8.330e-04   2.853e-04   /
#      CHEB/ -1.767e-05   -2.446e+00   2.295e-01    3.947e-02    -4.744e-05  /
#      CHEB/ 1.007e-03    2.237e-04    -8.750e-05   2.454e-05    -1.706e+00  /
#      CHEB/ -2.007e-01   3.218e-02    2.758e-03    -4.430e-04   4.162e-04   /
#      CHEB/ -3.806e-05   -7.061e-06   -8.602e-01   -2.353e-01   -2.111e-02  /
#      CHEB/ 5.085e-03    8.008e-05    -1.986e-04   9.383e-05    -3.236e-06  /
#      CHEB/ -3.187e-01   -1.117e-01   -4.256e-02   -2.093e-03   1.098e-03   /
#      CHEB/ -2.322e-04   -2.280e-05   2.696e-05    -9.058e-02   -1.246e-02  /
#      CHEB/ -2.526e-02   -8.675e-03   -1.133e-05   2.432e-04    -8.171e-05  /
#      CHEB/ 4.990e-06    -8.531e-03   3.080e-02    -3.344e-04   -7.194e-03  /
#      CHEB/ -1.940e-03   2.072e-04    6.219e-05    -1.406e-05   1.314e-02   /
#      CHEB/ 3.713e-02    1.379e-02    -8.072e-04   -2.194e-03   -3.560e-04  /
#      CHEB/ 1.234e-04    2.082e-05    2.137e-02    2.365e-02    1.505e-02   /
#      CHEB/ 4.579e-03    -5.569e-04   -6.511e-04   -3.623e-05   3.842e-05   /

# Reaction 5
chebyshev_reaction('bQOOHa (+ M) <=> bQOOHg (+ M)',
                   Tmin=180.0, Tmax=1500.0,
                   Pmin=(0.01, 'atm'), Pmax=(98.692, 'atm'),
                   coeffs=[[-1.38700e+01,  2.00600e+00,  2.77500e-02,  9.14100e-02,  1.39700e-02, -2.28600e-02, -6.89600e-03,  3.01300e-04],
                           [ 2.82500e+00, -5.73300e-03,  1.09000e-01, -9.34000e-03,  2.88700e-03,  2.62900e-02,  6.87300e-03, -1.09800e-03],
                           [-2.92100e+00, -5.85400e-02, -1.00700e-01, -3.38600e-02, -1.71300e-02, -5.26100e-03,  7.24600e-04,  9.71200e-04],
                           [-1.82000e+00, -1.84500e-01, -1.25900e-02, -9.85000e-03, -5.27900e-03, -3.18100e-03, -1.18100e-03,  3.49900e-05],
                           [-8.29500e-01, -1.69900e-01, -8.98900e-03,  1.53900e-02,  6.82900e-03,  4.92700e-04, -5.69800e-04, -5.23500e-04],
                           [-2.83700e-01, -8.91500e-02, -4.12800e-02,  5.12200e-03,  3.30400e-03,  1.00800e-03,  3.22200e-04, -2.56800e-05],
                           [-7.94600e-02, -1.02800e-02, -3.34000e-02, -1.18900e-02,  1.77100e-03,  3.58200e-04, -2.69500e-05,  2.63900e-04],
                           [ 1.34200e-03,  1.62700e-02,  5.48500e-04, -6.53600e-03, -4.11200e-03,  3.41100e-04,  2.91400e-04, -1.63800e-04],
                           [-1.15500e-02,  7.58900e-02,  3.51500e-03, -4.43500e-03, -1.35600e-05, -2.82800e-04, -4.05600e-04,  6.78700e-05],
                           [ 3.82400e-02, -1.68500e-03,  1.95300e-02,  4.06800e-03, -1.50000e-03, -6.82700e-04,  2.38000e-04,  4.58200e-05]])

# Reaction 6
chebyshev_reaction('bQOOH[O] (+ M) <=> bQOOHg (+ M)',
                   Tmin=180.0, Tmax=1500.0,
                   Pmin=(0.01, 'atm'), Pmax=(98.692, 'atm'),
                   coeffs=[[-6.38800e+00,  1.35100e+00, -2.94800e-01, -1.15600e-01,  2.16800e-02,  1.74400e-02, -9.84900e-04, -2.79400e-03],
                           [-2.33800e+00,  6.38400e-01,  2.75900e-01,  1.08400e-01, -4.28500e-02, -1.20000e-02,  6.12600e-03,  1.92200e-03],
                           [-3.72500e+00, -4.14400e-01, -1.61800e-01,  7.32200e-02,  4.09200e-02, -9.28400e-03, -6.66200e-03,  1.40500e-03],
                           [-2.02900e+00, -1.79000e-01, -8.55700e-02, -5.02200e-02,  4.24200e-03,  9.68400e-03,  1.06100e-03, -1.46600e-03],
                           [-8.43400e-01, -2.10400e-02,  5.07500e-03, -2.02300e-02, -1.06700e-02,  2.01200e-04,  1.09200e-03,  2.11300e-04],
                           [-3.40800e-01, -2.01200e-02, -8.79700e-03,  4.83400e-03, -1.87200e-05, -1.20000e-03, -4.03100e-04, -9.56700e-05],
                           [-1.19700e-01, -1.11800e-02, -1.60000e-02, -5.72100e-03, -4.86400e-04,  7.45000e-04,  5.91600e-04,  4.33000e-05],
                           [-4.95800e-02,  5.32300e-02,  1.19200e-04, -1.01200e-02, -4.00800e-03, -3.82900e-04,  2.54400e-04,  2.20300e-04],
                           [ 1.44700e-02,  3.21800e-02,  1.62700e-02,  1.26700e-03, -2.13600e-03, -1.22800e-03, -3.59300e-04, -1.74500e-05],
                           [ 1.05600e-02,  1.76300e-02,  1.37200e-02,  5.51500e-03,  5.46900e-04,  1.31300e-05,  5.49500e-05, -1.59800e-04]])

# Reaction 7
chebyshev_reaction('O2 + bR (+ M) <=> bQOOHg (+ M)',
                   Tmin=180.0, Tmax=1500.0,
                   Pmin=(0.01, 'atm'), Pmax=(98.692, 'atm'),
                   coeffs=[[ 6.37100e+00,  5.60500e-01, -2.68100e-01,  2.93800e-02, -5.65500e-03,  1.34800e-04,  5.45500e-04, -2.04500e-04],
                           [-2.85500e+00,  1.96500e+00,  7.76200e-02, -4.34400e-02,  1.24300e-02, -1.93700e-03, -2.86800e-04,  2.67100e-04],
                           [-1.98000e+00,  3.64100e-01,  1.46000e-01, -2.04400e-02, -2.84300e-03,  2.54200e-03, -4.48700e-04, -3.74000e-05],
                           [-1.12600e+00, -1.28900e-01,  7.07300e-02,  1.44500e-02, -6.27900e-03, -1.55100e-04,  4.29400e-04, -5.51800e-05],
                           [-5.40900e-01, -1.80200e-01, -9.24700e-03,  1.96600e-02,  1.34900e-03, -1.67600e-03, -7.24700e-05,  1.25700e-04],
                           [-2.20300e-01, -1.04600e-01, -4.26200e-02,  3.87300e-03,  5.18300e-03, -3.37900e-05, -5.09400e-04, -1.33000e-05],
                           [-6.28000e-02, -1.88800e-02, -3.30100e-02, -9.60800e-03,  2.23000e-03,  1.40300e-03, -8.77800e-05, -1.62100e-04],
                           [-2.23400e-03,  2.74800e-02, -7.02800e-03, -1.09200e-02, -2.10200e-03,  9.46900e-04,  4.39400e-04, -5.09200e-05],
                           [ 1.08500e-02,  3.53900e-02,  1.20500e-02, -3.90600e-03, -3.46100e-03, -3.92000e-04,  4.13300e-04,  1.35200e-04],
                           [ 4.94000e-03,  2.06000e-02,  1.58900e-02,  3.45200e-03, -1.65600e-03, -1.09700e-03, -2.24400e-05,  1.52200e-04]])
#  bRO2(+M) <=> bQOOHa(+M)                             1.000e+00 0.000     0.000
#      TCHEB/ 180.000   1500.000 /
#      PCHEB/ 0.010     98.692   /
#      CHEB/ 10 8/
#      CHEB/ -9.938e+00   2.259e+00    -3.340e-01   2.219e-02    2.865e-02   /
#      CHEB/ -1.134e-02   -1.171e-03   1.988e-03    5.788e+00    -1.778e-01  /
#      CHEB/ 4.338e-01    9.784e-04    -2.500e-02   8.895e-03    -8.808e-04  /
#      CHEB/ -1.770e-03   -2.778e+00   -4.158e-02   -2.544e-02   3.415e-03   /
#      CHEB/ -2.279e-03   9.685e-04    1.151e-03    -4.337e-04   -1.301e+00  /
#      CHEB/ 6.452e-03    -5.590e-02   -2.036e-02   -2.923e-03   1.045e-04   /
#      CHEB/ 3.467e-04    1.425e-04    -5.778e-01   3.442e-03    -2.492e-02  /
#      CHEB/ -1.006e-02   1.117e-04    -2.456e-04   -1.857e-04   7.318e-05   /
#      CHEB/ -2.463e-01   -2.349e-02   -1.352e-02   1.141e-03    -3.264e-05  /
#      CHEB/ 7.143e-04    3.009e-04    -1.116e-04   -1.393e-01   -1.103e-02  /
#      CHEB/ -8.742e-03   -3.257e-03   2.011e-03    1.854e-04    -1.116e-05  /
#      CHEB/ 1.307e-04    -2.921e-02   -3.100e-02   2.039e-03    2.195e-03   /
#      CHEB/ -2.143e-03   7.538e-05    3.059e-04    -1.377e-04   -6.881e-02  /
#      CHEB/ 5.093e-02    -7.253e-03   -4.187e-03   2.104e-03    -3.759e-05  /
#      CHEB/ -5.846e-04   1.574e-04    2.424e-02    -2.463e-02   8.786e-03   /
#      CHEB/ 1.418e-03    -8.501e-04   -1.473e-04   2.189e-04    -6.151e-05  /
#  bQOOHg(+M) <=> bQOOHa(+M)                           1.000e+00 0.000     0.000
#      TCHEB/ 180.000   1500.000 /
#      PCHEB/ 0.010     98.692   /
#      CHEB/ 10 8/
#      CHEB/ -1.168e+01   2.006e+00    2.775e-02    9.141e-02    1.397e-02   /
#      CHEB/ -2.286e-02   -6.896e-03   3.013e-04    8.760e-01    -5.733e-03  /
#      CHEB/ 1.090e-01    -9.340e-03   2.887e-03    2.629e-02    6.873e-03   /
#      CHEB/ -1.098e-03   -3.011e+00   -5.854e-02   -1.007e-01   -3.386e-02  /
#      CHEB/ -1.713e-02   -5.261e-03   7.246e-04    9.712e-04    -1.855e+00  /
#      CHEB/ -1.845e-01   -1.259e-02   -9.850e-03   -5.279e-03   -3.181e-03  /
#      CHEB/ -1.181e-03   3.499e-05    -8.401e-01   -1.699e-01   -8.989e-03  /
#      CHEB/ 1.539e-02    6.829e-03    4.927e-04    -5.698e-04   -5.235e-04  /
#      CHEB/ -2.863e-01   -8.915e-02   -4.128e-02   5.122e-03    3.304e-03   /
#      CHEB/ 1.008e-03    3.222e-04    -2.568e-05   -8.023e-02   -1.028e-02  /
#      CHEB/ -3.340e-02   -1.189e-02   1.771e-03    3.582e-04    -2.695e-05  /
#      CHEB/ 2.639e-04    1.071e-03    1.627e-02    5.485e-04    -6.536e-03  /
#      CHEB/ -4.112e-03   3.411e-04    2.914e-04    -1.638e-04   -1.157e-02  /
#      CHEB/ 7.589e-02    3.515e-03    -4.435e-03   -1.356e-05   -2.828e-04  /
#      CHEB/ -4.056e-04   6.787e-05    3.831e-02    -1.685e-03   1.953e-02   /
#      CHEB/ 4.068e-03    -1.500e-03   -6.827e-04   2.380e-04    4.582e-05   /

# Reaction 8
chebyshev_reaction('bQOOH[O] (+ M) <=> bQOOHa (+ M)',
                   Tmin=180.0, Tmax=1500.0,
                   Pmin=(0.01, 'atm'), Pmax=(98.692, 'atm'),
                   coeffs=[[-6.28600e+00,  2.81500e+00, -1.87700e-01,  8.10400e-03,  9.88400e-03, -1.67300e-02, -3.67200e-03,  1.88300e-03],
                           [-6.52600e+00, -4.00100e-01,  3.24200e-01,  2.31800e-02,  5.66900e-03,  2.04600e-02,  4.97300e-04, -3.79100e-03],
                           [-3.81600e+00, -5.37500e-01, -2.36300e-01, -2.41500e-02,  4.25100e-03,  3.26300e-03,  2.05700e-03,  7.18500e-04],
                           [-1.71900e+00, -3.66900e-02, -1.13000e-01, -4.47700e-02, -9.98300e-03, -1.11400e-03,  4.21400e-04,  2.28100e-04],
                           [-7.27700e-01,  1.18200e-01,  2.62400e-02,  2.77200e-03, -2.95700e-03, -4.25600e-03, -1.43500e-03,  1.32800e-04],
                           [-3.44700e-01,  4.96800e-02,  1.93100e-02,  1.41600e-02,  5.60100e-03,  1.82200e-03, -5.18300e-04, -7.81000e-04],
                           [-1.62300e-01, -1.30100e-02, -6.34400e-03, -2.75000e-03,  3.44500e-03,  2.17100e-03,  9.20700e-04,  9.65200e-05],
                           [-7.52800e-02, -6.74600e-03,  5.05200e-04, -4.83700e-03, -5.05200e-03, -2.63700e-05,  8.28300e-04,  2.24600e-04],
                           [-3.03600e-02,  3.13600e-02, -7.36200e-03, -2.47100e-03,  1.14900e-03, -8.63900e-04, -8.20000e-04,  1.03100e-04],
                           [ 2.25300e-02, -2.12700e-02,  5.31600e-03,  8.38600e-04,  3.48000e-04,  5.33600e-04,  2.13300e-04, -2.37800e-04]])

# Reaction 9
chebyshev_reaction('O2 + bR (+ M) <=> bQOOHa (+ M)',
                   Tmin=180.0, Tmax=1500.0,
                   Pmin=(0.01, 'atm'), Pmax=(98.692, 'atm'),
                   coeffs=[[ 2.90900e+00,  2.46300e+00,  5.05600e-02,  1.19200e-01,  3.87600e-02, -1.06600e-02, -3.72600e-03,  2.89400e-05],
                           [-4.25300e+00, -2.15500e-01,  1.35200e-01, -8.14200e-02, -3.20300e-02,  1.16600e-02,  2.25600e-03, -2.61100e-04],
                           [-2.32400e+00, -8.13200e-02, -7.80100e-02, -1.42400e-02, -9.30800e-03, -1.86600e-03,  1.48900e-03,  3.20500e-04],
                           [-1.11700e+00,  1.69800e-02, -2.28500e-02, -3.26300e-03, -4.16600e-04, -1.91900e-03, -7.74400e-04, -9.08000e-05],
                           [-4.81400e-01,  1.42400e-02,  6.69900e-03,  5.96800e-03,  4.37800e-03, -1.45400e-04, -5.68500e-04, -1.30000e-04],
                           [-1.96400e-01, -1.64400e-02,  1.18400e-03,  7.33400e-03,  2.14900e-03,  1.10400e-03,  2.37700e-04, -1.18800e-04],
                           [-7.70000e-02, -2.23000e-02, -6.38200e-03, -1.53500e-03,  2.58600e-03,  3.28800e-04, -5.79600e-06,  1.32000e-04],
                           [-1.24600e-02, -3.10200e-02,  6.88600e-05,  5.96100e-04, -2.19700e-03,  1.68500e-04,  2.84200e-04, -1.08300e-04],
                           [-2.16900e-02,  3.22000e-02, -1.11500e-02, -4.03600e-03,  1.93500e-03,  1.66400e-05, -4.95700e-04,  1.01000e-04],
                           [ 2.74600e-02, -2.38400e-02,  5.77100e-03,  1.44000e-04, -7.53200e-04, -3.97000e-05,  1.90700e-04, -6.32400e-05]])
#  bRO2(+M) <=> bQOOH[O](+M)                           1.000e+00 0.000     0.000
#      TCHEB/ 180.000   1500.000 /
#      PCHEB/ 0.010     98.692   /
#      CHEB/ 10 8/
#      CHEB/ -1.134e+01   1.572e+00    -1.880e-01   -2.787e-02   9.611e-03   /
#      CHEB/ 4.669e-03    -6.547e-04   -7.818e-04   7.282e+00    4.196e-01   /
#      CHEB/ 8.865e-02    5.932e-03    -5.174e-03   -1.236e-03   8.603e-04   /
#      CHEB/ 4.191e-04    -3.385e+00   -2.436e-01   -9.841e-02   5.642e-03   /
#      CHEB/ 1.524e-02    2.472e-03    -2.018e-03   -7.303e-04   -1.610e+00  /
#      CHEB/ -4.050e-02   -6.167e-02   -2.601e-02   -2.662e-03   2.864e-03   /
#      CHEB/ 1.207e-03    -2.092e-04   -7.514e-01   6.239e-02    1.976e-02   /
#      CHEB/ -9.936e-04   -5.643e-03   -3.023e-03   -2.262e-04   5.209e-04   /
#      CHEB/ -3.760e-01   2.618e-02    1.483e-02    6.289e-03    3.022e-03   /
#      CHEB/ 4.506e-04    -7.419e-04   -5.120e-04   -1.720e-01   -1.831e-02  /
#      CHEB/ -2.745e-03   -1.441e-03   6.706e-04    1.600e-03    7.810e-04   /
#      CHEB/ -7.124e-05   -8.223e-02   9.805e-03    -5.446e-04   -5.009e-03  /
#      CHEB/ -2.682e-03   -2.679e-04   4.318e-04    2.711e-04    -3.921e-03  /
#      CHEB/ -5.620e-03   3.107e-03    1.737e-03    -6.086e-04   -8.183e-04  /
#      CHEB/ -3.276e-04   -1.434e-05   5.092e-03    2.860e-03    -8.508e-04  /
#      CHEB/ 5.892e-04    1.141e-03    6.251e-04    5.029e-05    -1.615e-04  /
#  bQOOHg(+M) <=> bQOOH[O](+M)                         1.000e+00 0.000     0.000
#      TCHEB/ 180.000   1500.000 /
#      PCHEB/ 0.010     98.692   /
#      CHEB/ 10 8/
#      CHEB/ -9.919e+00   1.351e+00    -2.948e-01   -1.156e-01   2.168e-02   /
#      CHEB/ 1.744e-02    -9.849e-04   -2.794e-03   -2.383e-01   6.384e-01   /
#      CHEB/ 2.759e-01    1.084e-01    -4.285e-02   -1.200e-02   6.126e-03   /
#      CHEB/ 1.922e-03    -3.877e+00   -4.144e-01   -1.618e-01   7.322e-02   /
#      CHEB/ 4.092e-02    -9.284e-03   -6.662e-03   1.405e-03    -2.087e+00  /