units(length='cm', time='s', quantity='mol', act_energy='kcal/mol')

ideal_gas(name='gas',
          elements="H D T C Ci O Oi N Ne Ar He Si S F Cl Br I X",
          species="""aOOHbalkene      OH               ibutanal
                     aR               performic_acid   disub_c4ether
                     aQOOHb           H                aadduct
                     trisub_epoxy     ibutenol         aQOOH[O]
                     ipropyl          aRO2             O2
                     formic_acid      propene          aQOOHg
                     ibut_peroxyacid  HO2              CH3""",
          reactions='all',
          initial_state=state(temperature=300.0, pressure=OneAtm))

#-------------------------------------------------------------------------------
# Element data
#-------------------------------------------------------------------------------

element(symbol='Ci', atomic_mass=13.003)
element(symbol='D', atomic_mass=2.014)
element(symbol='Oi', atomic_mass=18.0)
element(symbol='T', atomic_mass=3.016)
element(symbol='X', atomic_mass=195.083)
#-------------------------------------------------------------------------------
# Species data
#-------------------------------------------------------------------------------

species(name='aOOHbalkene',
        atoms='C:3 H:6 O:3',
        thermo=(NASA([10.00, 497.41],
                     [ 3.76691735E+00,  1.51417956E-02,  1.85499431E-04,
                      -4.61303214E-07,  3.27678941E-10, -3.05097345E+04,
                       1.09903968E+01]),
                NASA([497.41, 3000.00],
                     [ 6.20882781E+00,  4.08866173E-02, -2.89934946E-05,
                       9.60428979E-09, -1.19355432E-12, -3.13140639E+04,
                      -4.72842811E+00])))

species(name='OH',
        atoms='H:1 O:1',
        thermo=(NASA([10.00, 984.14],
                     [ 3.49686242E+00,  1.83973160E-04, -9.97634499E-07,
                       1.56942783E-09, -6.10128175E-13,  3.41673934E+03,
                       1.48093120E+00]),
                NASA([984.14, 3000.00],
                     [ 3.45221464E+00, -2.95124034E-04,  7.39418622E-07,
                      -2.89309866E-10,  3.53041498E-14,  3.45751599E+03,
                       1.85813897E+00])))

species(name='ibutanal',
        atoms='C:4 H:8 O:1',
        thermo=(NASA([10.00, 683.88],
                     [ 3.57157346E+00,  3.36936906E-02, -1.78475021E-05,
                       1.31946716E-08, -7.58008388E-12, -2.77095628E+04,
                       1.05595084E+01]),
                NASA([683.88, 3000.00],
                     [ 1.29043622E+00,  4.14804229E-02, -2.27411206E-05,
                       6.08619500E-09, -6.38995128E-13, -2.72676437E+04,
                       2.16477430E+01])))

species(name='aR',
        atoms='C:4 H:9 O:1',
        thermo=(NASA([10.00, 455.22],
                     [ 3.59625500E+00,  3.38947981E-02,  7.37257079E-06,
                      -3.99275335E-08,  2.49019944E-11, -1.55513508E+04,
                       1.18269265E+01]),
                NASA([455.22, 3000.00],
                     [ 2.49586309E+00,  4.35639890E-02, -2.44887770E-05,
                       6.73363769E-09, -7.23862433E-13, -1.54511676E+04,
                       1.62696907E+01])))

species(name='performic_acid',
        atoms='C:1 H:2 O:3',
        thermo=(NASA([10.00, 590.95],
                     [ 3.92633851E+00,  4.24517168E-03,  6.71106764E-05,
                      -1.36545385E-07,  8.03337864E-11, -3.63028176E+04,
                       8.06485813E+00]),
                NASA([590.95, 3000.00],
                     [ 4.39992934E+00,  1.85411415E-02, -1.36005501E-05,
                       4.62292431E-09, -5.88463603E-13, -3.66643888E+04,
                       3.44353230E+00])))

species(name='disub_c4ether',
        atoms='C:4 H:8 O:2',
        thermo=(NASA([10.00, 413.50],
                     [ 3.78241323E+00,  1.89501763E-02,  8.65302396E-05,
                      -1.80580575E-07,  1.13656264E-10, -4.07893477E+04,
                       1.09982450E+01]),
                NASA([413.50, 3000.00],
                     [ 4.29420885E-01,  5.13851903E-02, -3.11292293E-05,
                       9.11498284E-09, -1.03192718E-12, -4.05120534E+04,
                       2.42134976E+01])))

species(name='aQOOHb',
        atoms='C:4 H:9 O:3',
        thermo=(NASA([10.00, 412.78],
                     [ 3.15498836E+00,  8.55068303E-02, -2.35307993E-04,
                       4.71983261E-07, -3.62709267E-10, -2.92010233E+04,
                       1.52522123E+01]),
                NASA([412.78, 3000.00],
                     [ 4.18099845E+00,  5.26168288E-02, -3.23998410E-05,
                       9.59389339E-09, -1.09464519E-12, -2.90902284E+04,
                       1.35782328E+01])))

species(name='H',
        atoms='H:1',
        thermo=(NASA([10.00, 794.01],
                     [ 2.50000000E+00,  1.99051163E-15, -1.19089508E-17,
                       2.10805655E-20, -1.11017699E-23,  2.54725594E+04,
                      -4.61279342E-01]),
                NASA([794.01, 3000.00],
                     [ 2.50000000E+00,  1.52667235E-14, -1.58445285E-17,
                       6.63088600E-21, -9.62111674E-25,  2.54725594E+04,
                      -4.61279342E-01])))

species(name='aadduct',
        atoms='C:4 H:9 O:3',
        thermo=(NASA([10.00, 449.84],
                     [ 3.06901904E+00,  9.20724491E-02, -2.68085092E-04,
                       5.15249897E-07, -3.68046586E-10, -3.03073114E+04,
                       1.46591735E+01]),
                NASA([449.84, 3000.00],
                     [ 4.11210745E+00,  5.16955724E-02, -2.97401041E-05,
                       8.32758939E-09, -9.08861448E-13, -3.00864705E+04,
                       1.39578825E+01])))

species(name='trisub_epoxy',
        atoms='C:4 H:8 O:2',
        thermo=(NASA([10.00, 209.19],
                     [ 3.75295042E+00,  2.37546930E-02,  1.26610110E-04,
                      -4.78364365E-07,  5.79468168E-10, -4.07328711E+04,
                       1.12739684E+01]),
                NASA([209.19, 3000.00],
                     [ 2.64185254E+00,  4.50006531E-02, -2.57361066E-05,
                       7.15266054E-09, -7.72980731E-13, -4.06863855E+04,
                       1.48960343E+01])))

species(name='ibutenol',
        atoms='C:4 H:8 O:1',
        thermo=(NASA([10.00, 135.97],
                     [ 3.95714996E+00,  5.72646980E-03,  4.63611760E-04,
                      -3.04137514E-06,  6.85019471E-09, -2.43517817E+04,
                       8.21931848E+00]),
                NASA([135.97, 3000.00],
                     [ 3.32467612E+00,  3.69033556E-02, -1.89960416E-05,
                       4.73417677E-09, -4.59705291E-13, -2.43462030E+04,
                       9.58133237E+00])))

species(name='aQOOH[O]',
        atoms='C:4 H:9 O:3',
        thermo=(NASA([10.00, 488.36],
                     [ 3.54559533E+00,  3.89536133E-02,  8.47689703E-05,
                      -2.45147486E-07,  1.76157259E-10, -2.58422005E+04,
                       1.34685910E+01]),
                NASA([488.36, 3000.00],
                     [ 3.94214913E+00,  5.71928314E-02, -3.72516212E-05,
                       1.15209013E-08, -1.35808341E-12, -2.61371615E+04,
                       9.21628964E+00])))

species(name='ipropyl',
        atoms='C:3 H:7',
        thermo=(NASA([10.00, 421.76],
                     [ 3.73943775E+00,  3.10070157E-02, -1.51196908E-04,
                       4.35367329E-07, -3.85565052E-10,  9.49213457E+03,
                       7.79448918E+00]),
                NASA([421.76, 3000.00],
                     [-4.74526725E-01,  3.20862468E-02, -1.67340747E-05,
                       4.21365136E-09, -4.13155573E-13,  1.01934458E+04,
                       2.85865912E+01])))

species(name='aRO2',
        atoms='C:4 H:9 O:3',
        thermo=(NASA([10.00, 670.36],
                     [ 3.45405325E+00,  4.74751311E-02,  9.77507759E-06,
                      -6.31019603E-08,  3.75500067E-11, -3.27924053E+04,
                       1.39284976E+01]),
                NASA([670.36, 3000.00],
                     [ 5.04137652E+00,  5.19952978E-02, -3.16472789E-05,
                       9.22798587E-09, -1.03598915E-12, -3.33195979E+04,
                       4.56056770E+00])))

species(name='O2',
        atoms='O:2',
        thermo=(NASA([10.00, 605.96],
                     [ 3.50743498E+00, -4.43860349E-04,  1.45938058E-06,
                       1.61509333E-09, -2.32050052E-12, -9.24756224E+02,
                       4.72183634E+00]),
                NASA([605.96, 3000.00],
                     [ 2.87462882E+00,  2.17840991E-03, -1.18262921E-06,
                       2.86910493E-10, -2.53297146E-14, -8.19517838E+02,
                       7.69331810E+00])))

species(name='formic_acid',
        atoms='C:1 H:2 O:2',
        thermo=(NASA([10.00, 741.38],
                     [ 4.06855785E+00, -4.74562133E-03,  4.71797900E-05,
                      -6.07490052E-08,  2.51286794E-11, -4.66880837E+04,
                       6.53681035E+00]),
                NASA([741.38, 3000.00],
                     [ 1.13645847E+00,  1.74953124E-02, -1.08112403E-05,
                       3.08075326E-09, -3.34892658E-13, -4.64297918E+04,
                       1.86149484E+01])))

species(name='propene',
        atoms='C:3 H:6',
        thermo=(NASA([10.00, 519.53],
                     [ 3.98723879E+00,  4.72040503E-04,  6.51776229E-05,
                      -9.89891002E-08,  4.91141123E-11,  2.17824997E+03,
                       6.98071210E+00]),
                NASA([519.53, 3000.00],
                     [ 3.79893331E-01,  2.82457690E-02, -1.50108430E-05,
                       3.90894069E-09, -4.00521928E-13,  2.55307732E+03,
                       2.20218922E+01])))

species(name='aQOOHg',
        atoms='C:4 H:9 O:3',
        thermo=(NASA([10.00, 455.48],
                     [ 3.62522127E+00,  2.83222320E-02,  2.08527447E-04,
                      -5.67427418E-07,  4.35169138E-10, -2.45583273E+04,
                       1.26617758E+01]),
                NASA([455.48, 3000.00],
                     [ 5.13914202E+00,  5.96270859E-02, -4.14435328E-05,
                       1.34202375E-08, -1.63474553E-12, -2.51588837E+04,
                       1.46991116E+00])))

species(name='ibut_peroxyacid',
        atoms='C:4 H:8 O:3',
        thermo=(NASA([10.00, 1386.21],
                     [ 3.50995385E+00,  4.78670384E-02, -2.40781384E-05,
                       3.71046938E-09,  3.85442115E-13, -4.73027084E+04,
                       1.22017268E+01]),
                NASA([1386.21, 3000.00],
                     [ 1.24543146E+01,  3.02396862E-02, -1.38577031E-05,
                       3.05328904E-09, -2.63982457E-13, -5.05685917E+04,
                      -3.67061828E+01])))

species(name='HO2',
        atoms='H:1 O:2',
        thermo=(NASA([10.00, 891.11],
                     [ 4.02887004E+00, -1.75769289E-03,  1.08726004E-05,
                      -1.13812972E-08,  3.90113097E-12,  4.95165001E+02,
                       4.69302008E+00]),
                NASA([891.11, 3000.00],
                     [ 3.06571044E+00,  4.28505005E-03, -2.19325920E-06,
                       5.58882699E-10, -5.61246669E-14,  5.98557610E+02,
                       8.84564156E+00])))

species(name='CH3',
        atoms='C:1 H:3',
        thermo=(NASA([10.00, 616.77],
                     [ 3.98929952E+00,  5.45150461E-04,  9.01320092E-06,
                      -1.08320497E-08,  4.38985879E-12,  1.65859883E+04,
                       2.22446886E-01]),
                NASA([616.77, 3000.00],
                     [ 3.35928237E+00,  4.63117126E-03, -9.24365433E-07,
                      -9.02514624E-11,  3.56905106E-14,  1.66637014E+04,
                       2.95743732E+00])))

#-------------------------------------------------------------------------------
# Reaction data
#-------------------------------------------------------------------------------

# Reaction 1
chebyshev_reaction('aQOOH[O] (+ M) <=> aQOOHb (+ M)',
                   Tmin=180.0, Tmax=1500.0,
                   Pmin=(0.01, 'atm'), Pmax=(98.692, 'atm'),
                   coeffs=[[-3.48500e+00,  1.81000e+00, -6.75200e-01, -4.47700e-02,  2.12500e-02,  3.77100e-03,  2.70000e-04, -3.70100e-04],
                           [ 7.47400e+00,  1.59700e+00,  2.77100e-01, -9.54700e-02, -3.05700e-02,  5.89000e-03,  2.53400e-03,  3.87000e-04],
                           [ 1.54600e-01,  2.53700e-01,  1.30600e-01,  2.37800e-02, -9.16300e-03, -4.77200e-03, -1.21100e-04,  4.28800e-04],
                           [-4.62000e-02,  3.81400e-03,  6.28800e-02,  1.72400e-02, -9.21600e-03, -2.58300e-03,  1.46800e-03,  2.48000e-04],
                           [-1.54800e-02,  3.37000e-02,  1.55000e-02,  6.58100e-03, -2.75800e-03, -3.77900e-03, -1.44900e-05,  9.19100e-04],
                           [-1.65100e-02,  2.45300e-02,  5.87800e-04,  3.18000e-03,  1.87200e-03, -2.20000e-03, -1.38000e-03,  3.07200e-04],
                           [-2.66500e-02, -1.85900e-02,  3.63900e-03,  3.53700e-03,  1.26700e-03,  7.87600e-05, -8.62000e-04, -4.32100e-04],
                           [-9.63300e-03, -1.51900e-02, -5.05800e-03,  1.78100e-03,  2.60400e-03,  7.54500e-04, -4.24600e-04, -3.91500e-04],
                           [-6.56100e-03, -1.02600e-02, -5.40500e-03,  8.65300e-04,  1.64200e-03,  5.78700e-04,  3.79400e-05, -1.60800e-04],
                           [ 5.85200e-04,  3.64600e-03,  1.33100e-03, -9.97500e-04, -2.78900e-04,  3.96800e-04,  2.22700e-04,  5.15900e-06]])

# Reaction 2
chebyshev_reaction('aQOOHg (+ M) <=> aQOOHb (+ M)',
                   Tmin=180.0, Tmax=1500.0,
                   Pmin=(0.01, 'atm'), Pmax=(98.692, 'atm'),
                   coeffs=[[-2.27400e+00,  8.69900e-01, -6.19100e-01, -1.97500e-02,  1.55200e-02,  2.40800e-03,  7.59000e-05, -1.46000e-04],
                           [ 5.73600e+00,  1.92700e+00, -2.96900e-02, -1.10500e-01, -1.39000e-02,  5.71600e-03,  2.56800e-03,  1.47400e-04],
                           [ 3.47400e-01,  4.65800e-01,  1.53400e-01, -3.36000e-02, -1.43200e-02, -1.14900e-03, -2.27600e-04,  4.33400e-04],
                           [-2.39400e-01,  1.74800e-01,  1.24600e-01, -2.72400e-03, -1.67400e-02, -1.17800e-03,  1.08800e-03, -3.28900e-06],
                           [-9.28400e-02,  8.21700e-02,  5.80500e-02,  1.84800e-02, -9.77800e-03, -4.46000e-03,  7.58500e-04,  6.35500e-04],
                           [-4.70800e-02,  1.52500e-02,  1.50000e-02,  1.45900e-02,  1.34200e-03, -3.07700e-03, -8.29700e-04,  2.48700e-04],
                           [-3.19400e-02, -3.30900e-02,  2.55600e-03,  7.15500e-03,  3.17400e-03, -3.54600e-04, -6.08500e-04, -2.38600e-04],
                           [-1.29200e-02, -1.86800e-02, -7.59800e-03,  2.69500e-03,  3.02000e-03,  3.66100e-04, -3.21600e-04, -1.28700e-04],
                           [-1.17700e-02, -7.27100e-03, -5.46600e-03,  1.56100e-04,  1.67500e-03,  4.09900e-04, -1.96700e-04, -1.64600e-05],
                           [ 4.17200e-03, -1.25500e-03, -2.08400e-04, -5.23900e-04, -1.04400e-04,  2.75400e-04,  7.41400e-05, -1.87800e-05]])

# Reaction 3
chebyshev_reaction('aRO2 (+ M) <=> aQOOHb (+ M)',
                   Tmin=180.0, Tmax=1500.0,
                   Pmin=(0.01, 'atm'), Pmax=(98.692, 'atm'),
                   coeffs=[[-6.86000e+00,  1.63500e+00, -3.36800e-01, -2.32500e-02,  7.75600e-03,  3.09400e-03,  1.81700e-04, -2.33500e-04],
                           [ 1.05700e+01,  1.71400e+00, -1.67800e-01, -8.73300e-02,  1.89300e-03,  6.41200e-03,  8.70400e-04, -2.99800e-04],
                           [ 1.07600e+00,  2.13000e-01,  1.35000e-01, -1.93800e-02, -2.20400e-02, -4.65700e-04,  2.23400e-03,  4.45900e-04],
                           [-2.45600e-01, -4.55500e-02,  1.06900e-01,  9.21600e-03, -1.37400e-02, -4.37200e-03,  1.02600e-03,  7.71500e-04],
                           [-2.56000e-01,  7.81800e-02,  3.35900e-02,  6.33500e-03, -4.82900e-03, -3.00500e-03,  2.51100e-04,  4.71500e-04],
                           [-6.49600e-02,  6.54400e-02, -2.29800e-03,  9.76500e-03, -7.50200e-05, -2.41800e-03, -3.67000e-04,  3.55700e-04],
                           [ 1.71500e-02, -2.24200e-02, -1.04800e-03,  6.32500e-03,  3.56000e-03, -9.72300e-04, -1.12900e-03,  2.69900e-05],
                           [ 1.31400e-02, -3.09400e-02, -1.83300e-03,  1.96900e-03,  2.94000e-03,  5.76900e-04, -7.73100e-04, -3.21300e-04],
                           [ 3.43500e-03, -1.05600e-02,  3.33300e-04, -9.97200e-04,  9.07000e-04,  7.38600e-04, -4.50000e-05, -2.44700e-04],
                           [-4.88300e-03,  6.96000e-03, -1.64900e-03, -2.65000e-04, -2.43600e-04,  2.20300e-04,  2.25300e-04, -3.25200e-05]])

# Reaction 4
chebyshev_reaction('aadduct (+ M) <=> aQOOHb (+ M)',
                   Tmin=180.0, Tmax=1500.0,
                   Pmin=(0.01, 'atm'), Pmax=(98.692, 'atm'),
                   coeffs=[[-1.11300e+01,  5.98200e-01, -1.05300e-01, -5.17100e-02, -1.01600e-02,  7.29100e-03,  3.54600e-03, -1.34300e-03],
                           [ 5.80100e+00,  2.92700e+00, -3.17300e-01, -7.69000e-02,  1.88000e-02,  1.62700e-03, -7.71200e-04, -9.49200e-04],
                           [ 1.69000e+00,  4.58000e-01, -6.79600e-02,  4.97900e-03, -6.25400e-03, -4.77300e-03, -9.84900e-04,  2.85500e-03],
                           [ 2.22400e-01, -4.93200e-01,  2.04400e-01,  3.28400e-02, -3.44700e-02, -3.11100e-03,  1.59900e-03,  2.57400e-03],
                           [-2.08600e-01, -4.94900e-02,  1.62600e-01, -1.76000e-02, -1.71100e-02,  5.75300e-03,  1.24800e-03, -2.32500e-03],
                           [-1.40100e-01,  2.64300e-01, -4.42800e-02, -5.39400e-03,  1.91400e-02, -5.92200e-03, -2.39300e-03, -1.03200e-03],
                           [ 6.73400e-02,  1.05700e-01, -1.09500e-01,  4.31400e-03,  1.66500e-02, -7.10000e-03,  1.84200e-03,  1.65600e-03],
                           [-2.90300e-02, -1.84600e-01,  3.79800e-02,  4.25900e-02, -6.37600e-03, -5.93700e-03, -1.17200e-03,  1.76500e-03],
                           [ 3.70600e-02, -6.88200e-02,  6.40000e-02, -2.04300e-02, -1.53500e-02,  1.50100e-02, -9.52300e-04, -2.63900e-03],
                           [-1.16700e-04,  7.70500e-02, -1.99600e-02, -2.20400e-02,  2.21000e-03,  6.66500e-03, -1.73000e-03, -1.10500e-03]])

# Reaction 5
chebyshev_reaction('O2 + aR (+ M) <=> aQOOHb (+ M)',
                   Tmin=180.0, Tmax=1500.0,
                   Pmin=(0.01, 'atm'), Pmax=(98.692, 'atm'),
                   coeffs=[[ 4.30800e+00,  7.83000e-01, -5.01200e-01, -7.88300e-02,  1.75700e-02,  7.05500e-03, -5.11000e-04, -4.55700e-05],
                           [ 1.29300e+00,  6.21800e-01,  1.71600e-01, -3.51400e-02, -3.30800e-02, -1.11600e-03,  3.89900e-03,  4.17600e-04],
                           [ 4.32100e-01,  2.50200e-01,  7.92800e-02, -3.54600e-03, -9.52500e-03, -1.47800e-03,  1.45100e-04, -1.93000e-04],
                           [ 1.54800e-01,  5.41200e-02,  5.93500e-02,  2.22000e-02, -6.83400e-03, -7.16700e-03,  6.93300e-06,  1.37500e-03],
                           [ 2.16800e-02,  4.02400e-02,  2.91900e-02,  1.30700e-02,  3.42300e-04, -3.46800e-03, -1.55800e-03,  3.43100e-04],
                           [-1.49400e-02,  2.28600e-02,  5.27000e-03,  2.82500e-03,  3.36500e-03,  4.82400e-04, -1.24900e-03, -5.35700e-04],
                           [-1.17800e-02, -2.64500e-02, -3.47500e-03,  3.83100e-03,  2.09400e-03,  5.01200e-04, -6.53900e-05, -2.93300e-04],
                           [-1.05800e-02, -1.05900e-02, -5.81700e-03, -8.73400e-04,  1.43400e-03,  1.12600e-03,  1.35900e-04, -2.60600e-04],
                           [-1.20000e-02, -3.43900e-03, -3.92500e-03, -9.28100e-04,  8.74400e-04,  5.16100e-04,  6.15400e-06, -4.37800e-05],
                           [ 2.79200e-03,  1.67600e-04,  1.13600e-03, -8.34000e-05, -5.81200e-04, -3.49300e-05,  2.11500e-04,  5.48600e-05]])
#  aQOOHb(+M) <=> aQOOH[O](+M)                         1.000e+00 0.000     0.000
#      TCHEB/ 180.000   1500.000 /
#      PCHEB/ 0.010     98.692   /
#      CHEB/ 10 8/
#      CHEB/ -9.517e+00   1.810e+00    -6.752e-01   -4.477e-02   2.125e-02   /
#      CHEB/ 3.771e-03    2.700e-04    -3.701e-04   1.086e+01    1.597e+00   /
#      CHEB/ 2.771e-01    -9.547e-02   -3.057e-02   5.890e-03    2.534e-03   /
#      CHEB/ 3.870e-04    2.326e-01    2.537e-01    1.306e-01    2.378e-02   /
#      CHEB/ -9.163e-03   -4.772e-03   -1.211e-04   4.288e-04    -2.014e-04  /
#      CHEB/ 3.814e-03    6.288e-02    1.724e-02    -9.216e-03   -2.583e-03  /
#      CHEB/ 1.468e-03    2.480e-04    -1.060e-04   3.370e-02    1.550e-02   /
#      CHEB/ 6.581e-03    -2.758e-03   -3.779e-03   -1.449e-05   9.191e-04   /
#      CHEB/ -1.174e-02   2.453e-02    5.878e-04    3.180e-03    1.872e-03   /
#      CHEB/ -2.200e-03   -1.380e-03   3.072e-04    -2.484e-02   -1.859e-02  /
#      CHEB/ 3.639e-03    3.537e-03    1.267e-03    7.876e-05    -8.620e-04  /
#      CHEB/ -4.321e-04   -8.917e-03   -1.519e-02   -5.058e-03   1.781e-03   /
#      CHEB/ 2.604e-03    7.545e-04    -4.246e-04   -3.915e-04   -6.366e-03  /
#      CHEB/ -1.026e-02   -5.405e-03   8.653e-04    1.642e-03    5.787e-04   /
#      CHEB/ 3.794e-05    -1.608e-04   5.922e-04    3.646e-03    1.331e-03   /
#      CHEB/ -9.975e-04   -2.789e-04   3.968e-04    2.227e-04    5.159e-06   /

# Reaction 6
chebyshev_reaction('aQOOHg (+ M) <=> aQOOH[O] (+ M)',
                   Tmin=180.0, Tmax=1500.0,
                   Pmin=(0.01, 'atm'), Pmax=(98.692, 'atm'),
                   coeffs=[[ 1.08400e+00,  1.34000e+00, -3.57300e-01, -6.32500e-03,  2.44800e-02,  4.25000e-03, -2.10300e-03, -8.37800e-04],
                           [ 3.77900e+00,  1.72000e+00, -1.06900e-01, -4.39900e-02, -1.61100e-02,  3.95400e-03,  4.56600e-03, -8.70600e-05],
                           [-1.12500e-01,  5.04600e-01,  2.01600e-01, -1.83900e-02, -1.42300e-02, -7.26700e-03, -1.26700e-03,  1.80300e-03],
                           [-3.36800e-01,  6.37600e-02,  2.21700e-02, -1.19100e-02,  5.06600e-03,  1.33700e-03, -1.11700e-03, -5.20900e-04],
                           [-7.15900e-02,  1.60200e-02,  4.10500e-03, -1.28000e-02, -1.22200e-02,  3.13500e-03,  2.48300e-03,  6.83500e-05],
                           [-4.14000e-02,  1.51200e-02,  3.10100e-02,  3.11500e-03, -6.45600e-03, -2.02900e-03, -2.95900e-05,  2.44700e-04],
                           [-3.85200e-02,  6.65800e-03,  1.02000e-02,  9.11900e-03,  1.34600e-03, -1.92500e-03, -2.63200e-04, -2.57800e-04],
                           [-1.02000e-02, -8.56000e-03,  2.04300e-03,  7.43100e-03,  8.66700e-04, -1.23100e-03, -3.46100e-04,  8.61700e-05],
                           [ 2.72600e-03, -1.21700e-02,  4.03900e-04,  4.14900e-03,  1.98100e-03, -5.33600e-04, -7.17800e-04,  5.60200e-06],
                           [-1.23300e-03,  6.03200e-04, -2.30600e-03, -7.38300e-04,  1.29000e-03,  5.05400e-04,  1.41900e-05, -8.29900e-05]])

# Reaction 7
chebyshev_reaction('aRO2 (+ M) <=> aQOOH[O] (+ M)',
                   Tmin=180.0, Tmax=1500.0,
                   Pmin=(0.01, 'atm'), Pmax=(98.692, 'atm'),
                   coeffs=[[-4.83500e+00,  2.34600e+00, -4.75600e-01, -1.61200e-02,  2.22500e-02,  2.58600e-03, -2.19400e-03, -7.14400e-04],
                           [ 1.12100e+01,  1.08000e+00,  1.75700e-01, -6.42800e-02, -2.22300e-02,  3.38500e-03,  3.03400e-03,  2.35900e-04],
                           [-7.43600e-01,  3.30600e-01,  1.18100e-01,  8.31200e-03, -1.14500e-02, -4.38000e-03,  5.03400e-04,  8.88800e-04],
                           [-3.68000e-01,  8.42300e-02,  5.78900e-02,  9.56000e-03, -4.68100e-03, -1.09400e-03,  3.26000e-04, -1.85400e-05],
                           [-1.45000e-01,  6.29400e-03,  1.69300e-02,  4.97400e-03, -1.43800e-03, -3.48700e-04,  3.88100e-04,  5.37500e-05],
                           [-3.74500e-02, -1.01600e-02, -2.44200e-03,  2.28300e-03,  6.66100e-04, -5.32000e-04, -1.22700e-04,  1.51300e-04],
                           [ 3.07700e-03, -1.13300e-02, -6.29000e-03,  1.82800e-03,  1.30800e-03, -6.78600e-04, -4.11500e-04,  1.11600e-04],
                           [ 1.87900e-02, -1.90000e-02, -2.03700e-03,  2.37200e-03,  7.96800e-04, -4.97100e-04, -3.73700e-04,  1.44900e-05],
                           [ 1.33800e-02, -1.31200e-02, -2.42600e-04,  1.84300e-03,  4.70600e-04, -2.00100e-04, -2.10000e-04, -5.09100e-05],
                           [-4.13500e-03,  4.73400e-03,  1.85200e-05, -5.70900e-04,  2.55300e-04,  2.58800e-04, -4.58700e-05, -9.29400e-05]])

# Reaction 8
chebyshev_reaction('aadduct (+ M) <=> aQOOH[O] (+ M)',
                   Tmin=180.0, Tmax=1500.0,
                   Pmin=(0.01, 'atm'), Pmax=(98.692, 'atm'),
                   coeffs=[[-1.07300e+01,  2.36900e+00, -4.69800e-01, -1.66400e-02,  2.16400e-02,  2.53700e-03, -2.13500e-03, -7.00100e-04],
                           [ 8.60500e+00,  1.10200e+00,  1.85100e-01, -6.33100e-02, -2.30700e-02,  3.10000e-03,  3.07100e-03,  2.71800e-04],
                           [-6.56300e-01,  3.29600e-01,  1.21300e-01,  1.03300e-02, -1.13100e-02, -4.64900e-03,  4.03500e-04,  8.99200e-04],
                           [-1.60300e-01,  7.48400e-02,  5.67900e-02,  1.10600e-02, -4.13500e-03, -1.25400e-03,  2.03700e-04, -1.53800e-05],
                           [ 9.90300e-03, -1.32600e-03,  1.49000e-02,  5.62600e-03, -1.00700e-03, -4.35500e-04,  2.92300e-04,  5.65700e-05],
                           [ 1.61900e-02, -1.35400e-02, -3.66600e-03,  2.42200e-03,  8.93300e-04, -5.58300e-04, -1.93000e-04,  1.39000e-04],
                           [-7.37300e-03, -1.17400e-02, -6.70000e-03,  1.77000e-03,  1.44700e-03, -6.35700e-04, -4.58900e-04,  7.99600e-05],
                           [-5.14000e-03, -1.82800e-02, -2.17200e-03,  2.26000e-03,  9.25400e-04, -4.03800e-04, -3.94900e-04, -2.31300e-05],
                           [ 3.57900e-04, -1.23700e-02, -3.18800e-04,  1.71900e-03,  5.60700e-04, -1.00600e-04, -2.04000e-04, -7.79100e-05],
                           [ 2.88000e-04,  5.18800e-03,  3.20500e-05, -6.73500e-04,  2.67600e-04,  3.24600e-04, -2.01300e-05, -1.01800e-04]])

# Reaction 9
chebyshev_reaction('O2 + aR (+ M) <=> aQOOH[O] (+ M)',
                   Tmin=180.0, Tmax=1500.0,
                   Pmin=(0.01, 'atm'), Pmax=(98.692, 'atm'),
                   coeffs=[[ 6.50500e+00,  1.36600e+00, -3.42000e-01, -1.09800e-01, -8.38900e-03,  9.72700e-03,  3.88600e-03, -3.30700e-04],
                           [ 1.23700e-01,  3.80900e-01,  1.87200e-01,  4.36200e-02, -8.48000e-03, -9.72900e-03, -1.92700e-03,  9.71600e-04],
                           [ 6.21100e-02,  9.18700e-02,  5.75400e-02,  2.42000e-02,  4.46000e-03, -1.97000e-03, -1.72900e-03, -3.40800e-04],
                           [ 6.01100e-02,  4.11200e-02,  1.92300e-02,  4.09800e-03, -6.06300e-04, -4.15200e-04,  1.52900e-04,  1.45500e-04],
                           [ 4.99500e-02,  2.48900e-02,  1.05200e-02,  6.32800e-04, -1.98600e-03, -1.05100e-03, -9.45400e-06,  2.39500e-04],
                           [ 2.22800e-03,  1.00100e-02,  5.52400e-03,  1.63600e-03, -2.66100e-04, -5.99200e-04, -3.22800e-04, -5.48500e-05],
                           [-2.54700e-02, -3.38500e-03,  4.93700e-04,  2.06100e-03,  1.27300e-03,  1.19600e-04, -3.16500e-04, -2.14000e-04],
                           [-8.57700e-03, -1.56000e-02, -5.63900e-03,  6.91300e-04,  1.80300e-03,  7.30800e-04, -8.40300e-05, -2.11900e-04],
                           [-7.90300e-04, -1.13200e-02, -4.82400e-03, -3.09500e-04,  9.42800e-04,  5.60600e-04,  7.68500e-05, -7.81300e-05],
                           [-7.62300e-04,  3.95600e-03,  1.19000e-03, -3.40300e-04, -3.96100e-04, -2.64000e-05,  1.22200e-04,  6.76500e-05]])
#  aQOOHb(+M) <=> aQOOHg(+M)                           1.000e+00 0.000     0.000
#      TCHEB/ 180.000   1500.000 /
#      PCHEB/ 0.010     98.692   /
#      CHEB/ 10 8/
#      CHEB/ -1.024e+01   8.699e-01    -6.191e-01   -1.975e-02   1.552e-02   /
#      CHEB/ 2.408e-03    7.590e-05    -1.460e-04   1.079e+01    1.927e+00   /
#      CHEB/ -2.969e-02   -1.105e-01   -1.390e-02   5.716e-03    2.568e-03   /
#      CHEB/ 1.474e-04    5.706e-01    4.658e-01    1.534e-01    -3.360e-02  /
#      CHEB/ -1.432e-02   -1.149e-03   -2.276e-04   4.334e-04    -1.453e-01  /
#      CHEB/ 1.748e-01    1.246e-01    -2.724e-03   -1.674e-02   -1.178e-03  /
#      CHEB/ 1.088e-03    -3.289e-06   -6.464e-02   8.217e-02    5.805e-02   /
#      CHEB/ 1.848e-02    -9.778e-03   -4.460e-03   7.585e-04    6.355e-04   /
#      CHEB/ -3.921e-02   1.525e-02    1.500e-02    1.459e-02    1.342e-03   /
#      CHEB/ -3.077e-03   -8.297e-04   2.487e-04    -2.943e-02   -3.309e-02  /
#      CHEB/ 2.556e-03    7.155e-03    3.174e-03    -3.546e-04   -6.085e-04  /
#      CHEB/ -2.386e-04   -1.219e-02   -1.868e-02   -7.598e-03   2.695e-03   /
#      CHEB/ 3.020e-03    3.661e-04    -3.216e-04   -1.287e-04   -1.174e-02  /
#      CHEB/ -7.271e-03   -5.466e-03   1.561e-04    1.675e-03    4.099e-04   /
#      CHEB/ -1.967e-04   -1.646e-05   4.030e-03    -1.255e-03   -2.084e-04  /
#      CHEB/ -5.239e-04   -1.044e-04   2.754e-04    7.414e-05    -1.878e-05  /
#  aQOOH[O](+M) <=> aQOOHg(+M)                         1.000e+00 0.000     0.000
#      TCHEB/ 180.000   1500.000 /
#      PCHEB/ 0.010     98.692   /
#      CHEB/ 10 8/
#      CHEB/ -8.462e-01   1.340e+00    -3.573e-01   -6.325e-03   2.448e-02   /
#      CHEB/ 4.250e-03    -2.103e-03   -8.378e-04   5.447e+00    1.720e+00   /
#      CHEB/ -1.069e-01   -4.399e-02   -1.611e-02   3.954e-03    4.566e-03   /
#      CHEB/ -8.706e-05   3.281e-02    5.046e-01    2.016e-01    -1.839e-02  /
#      CHEB/ -1.423e-02   -7.267e-03   -1.267e-03   1.803e-03    -2.886e-01  /
#      CHEB/ 6.376e-02    2.217e-02    -1.191e-02   5.066e-03    1.337e-03   /
#      CHEB/ -1.117e-03   -5.209e-04   -5.877e-02   1.602e-02    4.105e-03   /
#      CHEB/ -1.280e-02   -1.222e-02   3.135e-03    2.483e-03    6.835e-05   /