units(length='cm', time='s', quantity='mol', act_energy='kcal/mol')

ideal_gas(name='gas',
          elements="H D T C Ci O Oi N Ne Ar He Si S F Cl Br I X",
          species="""OH             bQOOH[O]       acetone
                     H2O            balkoxyketone  ibutenol
                     trisub_epoxy   bQOOHg         CH2O
                     galkene        O2             bR
                     bQOOHa         bRO2           disub_epoxy
                     HO2""",
          reactions='all',
          initial_state=state(temperature=300.0, pressure=OneAtm))

#-------------------------------------------------------------------------------
# Element data
#-------------------------------------------------------------------------------

element(symbol='Ci', atomic_mass=13.003)
element(symbol='D', atomic_mass=2.014)
element(symbol='Oi', atomic_mass=18.0)
element(symbol='T', atomic_mass=3.016)
element(symbol='X', atomic_mass=195.083)
#-------------------------------------------------------------------------------
# Species data
#-------------------------------------------------------------------------------

species(name='OH',
        atoms='H:1 O:1',
        thermo=(NASA([10.00, 984.14],
                     [ 3.49686242E+00,  1.83973160E-04, -9.97634499E-07,
                       1.56942783E-09, -6.10128175E-13,  3.41673934E+03,
                       1.48093120E+00]),
                NASA([984.14, 3000.00],
                     [ 3.45221464E+00, -2.95124034E-04,  7.39418622E-07,
                      -2.89309866E-10,  3.53041498E-14,  3.45751599E+03,
                       1.85813897E+00])))

species(name='bQOOH[O]',
        atoms='C:4 H:9 O:3',
        thermo=(NASA([10.00, 338.69],
                     [ 3.60915854E+00,  3.39069566E-02,  2.22227265E-04,
                      -8.23527342E-07,  8.56246333E-10, -2.23198197E+04,
                       1.23284605E+01]),
                NASA([338.69, 3000.00],
                     [ 5.03198881E+00,  5.46235886E-02, -3.56935806E-05,
                       1.12371751E-08, -1.35390171E-12, -2.26314024E+04,
                       3.82760723E+00])))

species(name='acetone',
        atoms='C:3 H:6 O:1',
        thermo=(NASA([10.00, 414.35],
                     [ 3.73496166E+00,  3.05743218E-02, -1.26253585E-04,
                       3.66080978E-07, -3.31430437E-10, -2.77716288E+04,
                       8.24936012E+00]),
                NASA([414.35, 3000.00],
                     [ 1.70010292E-01,  3.28431468E-02, -1.80960132E-05,
                       4.82960690E-09, -5.02388538E-13, -2.72002457E+04,
                       2.56372653E+01])))

species(name='H2O',
        atoms='H:2 O:1',
        thermo=(NASA([10.00, 773.84],
                     [ 4.00473541E+00, -2.39729134E-04,  8.11862955E-07,
                       1.47891862E-09, -1.19783539E-12, -3.03533807E+04,
                      -9.96254147E-02]),
                NASA([773.84, 3000.00],
                     [ 3.52133374E+00,  1.05377009E-03,  6.40722099E-07,
                      -3.86240235E-10,  5.49243294E-14, -3.02424794E+04,
                       2.34173094E+00])))

species(name='balkoxyketone',
        atoms='C:4 H:7 O:2',
        thermo=(NASA([10.00, 269.93],
                     [ 3.81931151E+00,  1.68519318E-02,  2.42742224E-04,
                      -9.64821161E-07,  1.18509335E-09, -2.06190533E+04,
                       1.20521854E+01]),
                NASA([269.93, 3000.00],
                     [ 3.57555944E+00,  4.28868089E-02, -2.65390705E-05,
                       7.99659117E-09, -9.32983470E-13, -2.06875814E+04,
                       1.13957990E+01])))

species(name='ibutenol',
        atoms='C:4 H:8 O:1',
        thermo=(NASA([10.00, 135.97],
                     [ 3.95714996E+00,  5.72646980E-03,  4.63611760E-04,
                      -3.04137514E-06,  6.85019471E-09, -2.48932349E+04,
                       8.21931848E+00]),
                NASA([135.97, 3000.00],
                     [ 3.32467612E+00,  3.69033556E-02, -1.89960416E-05,
                       4.73417677E-09, -4.59705291E-13, -2.48876562E+04,
                       9.58133237E+00])))

species(name='trisub_epoxy',
        atoms='C:4 H:8 O:2',
        thermo=(NASA([10.00, 209.19],
                     [ 3.75295042E+00,  2.37546930E-02,  1.26610110E-04,
                      -4.78364365E-07,  5.79468168E-10, -4.31045790E+04,
                       1.12739684E+01]),
                NASA([209.19, 3000.00],
                     [ 2.64185254E+00,  4.50006531E-02, -2.57361066E-05,
                       7.15266054E-09, -7.72980731E-13, -4.30580934E+04,
                       1.48960343E+01])))

species(name='bQOOHg',
        atoms='C:4 H:9 O:3',
        thermo=(NASA([10.00, 441.09],
                     [ 3.56595280E+00,  3.36073467E-02,  2.03462772E-04,
                      -5.98977617E-07,  4.83271168E-10, -2.36591164E+04,
                       1.33537891E+01]),
                NASA([441.09, 3000.00],
                     [ 6.09031192E+00,  5.80517622E-02, -4.06392697E-05,
                       1.32574026E-08, -1.62501077E-12, -2.43423019E+04,
                      -1.97849715E+00])))

species(name='CH2O',
        atoms='C:1 H:2 O:1',
        thermo=(NASA([10.00, 601.31],
                     [ 4.03190845E+00, -1.93233367E-03,  8.89743345E-06,
                       2.98105926E-09, -7.90813886E-12, -1.42276270E+04,
                       3.47574660E+00]),
                NASA([601.31, 3000.00],
                     [ 1.40134195E+00,  9.48858016E-03, -4.43088317E-06,
                       9.48452194E-10, -7.43790219E-14, -1.38013869E+04,
                       1.57423780E+01])))

species(name='galkene',
        atoms='C:4 H:8 O:1',
        thermo=(NASA([10.00, 383.47],
                     [ 3.84035604E+00,  1.20378740E-02,  1.87486319E-04,
                      -5.44759148E-07,  4.80711015E-10, -2.04414141E+04,
                       1.02570291E+01]),
                NASA([383.47, 3000.00],
                     [ 4.00413385E+00,  3.79025144E-02, -2.15435710E-05,
                       6.15213311E-09, -6.97446345E-13, -2.06567034E+04,
                       6.98052628E+00])))

species(name='O2',
        atoms='O:2',
        thermo=(NASA([10.00, 605.96],
                     [ 3.50743498E+00, -4.43860349E-04,  1.45938058E-06,
                       1.61509333E-09, -2.32050052E-12, -9.24756224E+02,
                       4.72183634E+00]),
                NASA([605.96, 3000.00],
                     [ 2.87462882E+00,  2.17840991E-03, -1.18262921E-06,
                       2.86910493E-10, -2.53297146E-14, -8.19517838E+02,
                       7.69331810E+00])))

species(name='bR',
        atoms='C:4 H:9 O:1',
        thermo=(NASA([10.00, 483.43],
                     [ 3.38164846E+00,  5.97142637E-02, -1.58320095E-04,
                       3.04908893E-07, -2.13091806E-10, -1.11177381E+04,
                       1.09226843E+01]),
                NASA([483.43, 3000.00],
                     [ 2.33428824E+00,  4.22094427E-02, -2.28029290E-05,
                       6.04614564E-09, -6.30240159E-13, -1.07106561E+04,
                       1.83772893E+01])))

species(name='bQOOHa',
        atoms='C:4 H:9 O:3',
        thermo=(NASA([10.00, 390.53],
                     [ 3.54969236E+00,  3.76592474E-02,  1.76622653E-04,
                      -5.98063750E-07,  5.45069236E-10, -2.75017848E+04,
                       1.31518761E+01]),
                NASA([390.53, 3000.00],
                     [ 5.33564209E+00,  5.64935715E-02, -3.83214298E-05,
                       1.22990604E-08, -1.49549987E-12, -2.79243948E+04,
                       2.59015836E+00])))

species(name='bRO2',
        atoms='C:4 H:9 O:3',
        thermo=(NASA([10.00, 461.39],
                     [ 3.53964713E+00,  3.88723795E-02,  9.57420148E-05,
                      -2.80380499E-07,  2.09647462E-10, -3.19038002E+04,
                       1.18803618E+01]),
                NASA([461.39, 3000.00],
                     [ 3.47201723E+00,  6.00510247E-02, -4.00567321E-05,
                       1.25663813E-08, -1.49496682E-12, -3.21167469E+04,
                       9.77903975E+00])))

species(name='disub_epoxy',
        atoms='C:4 H:8 O:2',
        thermo=(NASA([10.00, 549.41],
                     [ 3.89863211E+00,  5.97532637E-03,  1.66685676E-04,
                      -3.10743768E-07,  1.78330192E-10, -3.73462984E+04,
                       1.13847308E+01]),
                NASA([549.41, 3000.00],
                     [-6.40277648E-01,  6.05960003E-02, -4.13427220E-05,
                       1.31555461E-08, -1.57685017E-12, -3.71731815E+04,
                       2.76005436E+01])))

species(name='HO2',
        atoms='H:1 O:2',
        thermo=(NASA([10.00, 891.11],
                     [ 4.02887004E+00, -1.75769289E-03,  1.08726004E-05,
                      -1.13812972E-08,  3.90113097E-12,  4.95165001E+02,
                       4.69302008E+00]),
                NASA([891.11, 3000.00],
                     [ 3.06571044E+00,  4.28505005E-03, -2.19325920E-06,
                       5.58882699E-10, -5.61246669E-14,  5.98557610E+02,
                       8.84564156E+00])))

#-------------------------------------------------------------------------------
# Reaction data
#-------------------------------------------------------------------------------

# Reaction 1
chebyshev_reaction('bQOOHg (+ M) <=> bRO2 (+ M)',
                   Tmin=180.0, Tmax=1500.0,
                   Pmin=(0.01, 'atm'), Pmax=(98.692, 'atm'),
                   coeffs=[[ 1.51900e+00,  4.96800e-01,  5.53300e-02,  3.88000e-03, -1.75200e-03, -2.20600e-04, -8.59400e-05,  5.24000e-05],
                           [-2.78600e+00,  7.37300e-01,  1.02200e-01,  7.45200e-03, -1.81900e-03, -6.52100e-04, -7.77600e-05,  6.14500e-05],
                           [-2.85200e+00,  2.15700e-01,  6.49000e-02,  8.38700e-03,  5.11700e-04, -4.80700e-04, -3.39700e-05,  1.24900e-05],
                           [-1.74200e+00, -1.48300e-01,  8.78500e-03,  6.41100e-03,  1.61000e-03,  9.29400e-05, -2.75400e-05, -1.48500e-05],
                           [-8.95800e-01, -2.03200e-01, -2.58500e-02, -4.39200e-05,  1.07800e-03,  4.48300e-04,  4.50900e-05, -2.45200e-05],
                           [-3.16600e-01, -1.04400e-01, -1.97200e-02, -4.07000e-03, -4.24900e-04,  2.67200e-04,  1.18900e-04, -1.39800e-05],
                           [-1.62700e-01, -3.58200e-02,  1.10700e-03, -6.94100e-04, -1.16100e-03, -1.72100e-04,  7.95800e-05,  3.31400e-06],
                           [-5.57400e-02, -3.43400e-02,  4.84600e-03,  4.64500e-03, -1.29100e-04, -3.58100e-04, -2.98000e-05,  4.32900e-06],
                           [-3.19000e-02, -4.27400e-02, -8.56600e-03,  4.29000e-03,  1.31900e-03, -1.30900e-04, -6.47600e-05, -3.48000e-06],
                           [ 4.68200e-03, -2.24900e-02, -1.87300e-02, -1.02700e-03,  1.23500e-03,  1.66400e-04, -1.31400e-06,  9.37500e-06]])

# Reaction 2
chebyshev_reaction('bQOOHa (+ M) <=> bRO2 (+ M)',
                   Tmin=180.0, Tmax=1500.0,
                   Pmin=(0.01, 'atm'), Pmax=(98.692, 'atm'),
                   coeffs=[[ 2.05100e+00,  6.58500e-01,  2.06700e-03, -4.39600e-03,  1.10000e-03,  1.34900e-04, -1.62700e-04,  7.77600e-06],
                           [-2.31800e+00,  1.01100e+00,  2.41700e-02, -6.28300e-03,  1.57100e-03,  2.17700e-04, -1.75900e-04,  1.88000e-05],
                           [-3.30000e+00,  3.47200e-01,  4.93700e-02,  1.31600e-03,  3.09600e-04,  1.31100e-04,  9.41900e-05,  2.25400e-05],
                           [-2.07900e+00, -1.82800e-01,  3.12100e-02,  9.47500e-03, -5.99800e-06,  5.03200e-05,  1.98900e-04,  4.33000e-06],
                           [-9.70500e-01, -3.13300e-01, -1.74300e-02,  9.70200e-03,  9.60700e-04,  4.96000e-05,  6.58600e-05, -3.67000e-05],
                           [-3.20500e-01, -1.63600e-01, -4.18300e-02,  1.16100e-03,  1.28800e-03,  1.40200e-04, -8.95100e-05, -5.77600e-05],
                           [-1.09600e-01, -3.47500e-03, -2.12100e-02, -5.73800e-03, -3.92400e-04,  7.12900e-05, -3.00000e-05, -1.43200e-05],
                           [-4.96900e-02,  2.83400e-02,  1.01400e-02, -2.70100e-03, -2.23600e-03, -3.26300e-04,  1.76500e-04,  7.07200e-05],
                           [-7.56100e-02, -2.07800e-02,  1.35400e-02,  5.25100e-03, -1.43000e-03, -6.49700e-04,  2.22300e-04,  1.04100e-04],
                           [-5.57700e-03, -4.85800e-02, -8.78900e-03,  6.96800e-03,  1.58200e-03, -3.42200e-04, -1.46100e-05,  2.68800e-05]])

# Reaction 3
chebyshev_reaction('bQOOH[O] (+ M) <=> bRO2 (+ M)',
                   Tmin=180.0, Tmax=1500.0,
                   Pmin=(0.01, 'atm'), Pmax=(98.692, 'atm'),
                   coeffs=[[ 4.40600e+00,  1.99600e+00, -8.98900e-02, -2.05100e-02, -5.43900e-03, -1.95400e-04,  7.13000e-04,  3.88300e-04],
                           [-6.71100e+00,  3.33700e-01,  1.71200e-02,  2.70600e-02,  6.72200e-03,  1.11300e-03, -3.04100e-04, -3.59200e-04],
                           [-3.36900e+00,  4.01700e-02, -8.58500e-02, -1.62200e-02, -2.31200e-03,  1.05900e-03,  1.13700e-03,  4.18700e-04],
                           [-1.66600e+00,  7.91700e-02, -1.09900e-02, -2.18200e-03, -1.24900e-03, -9.17900e-04, -3.11600e-04, -6.62100e-05],
                           [-9.78500e-01,  1.45600e-02,  1.04700e-02,  2.87100e-03,  1.93200e-03,  6.88900e-04,  1.22800e-04, -1.07600e-04],
                           [-5.21200e-01, -5.58700e-02,  1.93700e-03, -3.15000e-03, -9.52300e-04,  1.70100e-04,  2.71700e-04,  1.23600e-04],
                           [-2.54500e-01, -6.06800e-02,  5.78500e-03,  2.01700e-04, -1.07700e-03, -2.42500e-04, -4.04400e-05, -4.09100e-05],
                           [-1.14200e-01, -4.59400e-02,  3.17400e-03,  2.37300e-03, -6.48800e-04, -1.28000e-04,  1.95100e-05, -2.64100e-05],
                           [-1.88200e-03, -4.41000e-02, -1.33800e-02, -6.10800e-04, -5.25500e-04, -2.35700e-05,  2.35700e-04,  1.16600e-04],
                           [-2.32400e-02,  4.70200e-03, -4.09500e-03,  1.13100e-03, -2.82100e-04, -4.92800e-04, -1.28900e-04, -1.41600e-05]])

# Reaction 4
chebyshev_reaction('O2 + bR (+ M) <=> bRO2 (+ M)',
                   Tmin=180.0, Tmax=1500.0,
                   Pmin=(0.01, 'atm'), Pmax=(98.692, 'atm'),
                   coeffs=[[ 1.25000e+01,  9.83500e-01, -2.59600e-01,  8.21500e-02, -2.14200e-02,  3.77400e-03, -2.71100e-04, -9.82600e-05],
                           [-2.55800e+00,  1.25600e+00, -1.57900e-01,  9.55800e-03,  1.12100e-02, -6.90500e-03,  2.00400e-03, -2.44000e-04],
                           [-1.76000e+00,  5.77500e-01,  3.61200e-02, -2.71700e-02,  1.06100e-02, -2.50000e-03, -5.31900e-05,  2.64600e-04],
                           [-1.17000e+00,  1.39100e-01,  8.20800e-02, -1.60900e-02,  2.54300e-03,  2.65900e-04, -4.11800e-04,  1.22600e-04],
                           [-7.18000e-01, -5.98300e-02,  5.69600e-02, -1.63500e-03, -5.91400e-04,  5.73800e-04, -1.57900e-04, -2.40400e-05],
                           [-4.04600e-01, -1.16500e-01,  2.35700e-02,  3.49700e-03, -7.29200e-04,  4.15600e-04,  2.44800e-05, -7.12500e-05],
                           [-1.99100e-01, -1.08400e-01,  2.26300e-03,  3.20400e-03, -4.92400e-04,  2.29700e-04,  1.31200e-04, -5.78100e-05],
                           [-7.44800e-02, -7.45300e-02, -9.05500e-03,  2.21400e-03, -3.92700e-04, -2.48700e-05,  1.55300e-04, -9.58700e-06],
                           [-6.59700e-03, -3.63300e-02, -1.29500e-02,  9.20600e-04, -2.72300e-05, -2.57500e-04,  8.77000e-05,  3.66500e-05],
                           [ 2.27800e-02, -3.56400e-03, -1.20200e-02, -4.42000e-04,  2.84600e-04, -2.78500e-04, -1.54900e-05,  4.95800e-05]])
#  bRO2(+M) <=> bQOOHg(+M)                             1.000e+00 0.000     0.000
#      TCHEB/ 180.000   1500.000 /
#      PCHEB/ 0.010     98.692   /
#      CHEB/ 10 8/
#      CHEB/ -8.668e+00   4.968e-01    5.533e-02    3.880e-03    -1.752e-03  /
#      CHEB/ -2.206e-04   -8.594e-05   5.240e-05    6.360e+00    7.373e-01   /
#      CHEB/ 1.022e-01    7.452e-03    -1.819e-03   -6.521e-04   -7.776e-05  /
#      CHEB/ 6.145e-05    -2.706e+00   2.157e-01    6.490e-02    8.387e-03   /
#      CHEB/ 5.117e-04    -4.807e-04   -3.397e-05   1.249e-05    -1.705e+00  /
#      CHEB/ -1.483e-01   8.785e-03    6.411e-03    1.610e-03    9.294e-05   /
#      CHEB/ -2.754e-05   -1.485e-05   -8.900e-01   -2.032e-01   -2.585e-02  /
#      CHEB/ -4.392e-05   1.078e-03    4.483e-04    4.509e-05    -2.452e-05  /
#      CHEB/ -3.167e-01   -1.044e-01   -1.972e-02   -4.070e-03   -4.249e-04  /
#      CHEB/ 2.672e-04    1.189e-04    -1.398e-05   -1.632e-01   -3.582e-02  /
#      CHEB/ 1.107e-03    -6.941e-04   -1.161e-03   -1.721e-04   7.958e-05   /
#      CHEB/ 3.314e-06    -5.620e-02   -3.434e-02   4.846e-03    4.645e-03   /
#      CHEB/ -1.291e-04   -3.581e-04   -2.980e-05   4.329e-06    -3.223e-02  /
#      CHEB/ -4.274e-02   -8.566e-03   4.290e-03    1.319e-03    -1.309e-04  /
#      CHEB/ -6.476e-05   -3.480e-06   4.496e-03    -2.249e-02   -1.873e-02  /
#      CHEB/ -1.027e-03   1.235e-03    1.664e-04    -1.314e-06   9.375e-06   /

# Reaction 5
chebyshev_reaction('bQOOHa (+ M) <=> bQOOHg (+ M)',
                   Tmin=180.0, Tmax=1500.0,
                   Pmin=(0.01, 'atm'), Pmax=(98.692, 'atm'),
                   coeffs=[[-9.44200e+00, -5.60100e-01,  3.61600e-02,  6.10900e-04, -2.86100e-03, -3.02700e-04, -8.69500e-05,  7.32700e-05],
                           [ 1.03300e+00,  1.91200e+00,  1.53100e-01, -6.65400e-03, -1.80600e-03, -7.43100e-04, -1.10000e-04,  9.80200e-05],
                           [-4.22300e+00,  2.65800e-01,  1.50400e-01,  1.10500e-02, -6.22100e-04,  9.79400e-05,  4.15800e-05, -1.31200e-05],
                           [-2.42900e+00, -5.13500e-01, -3.50900e-03,  2.20800e-02,  2.52500e-03,  3.11600e-04,  2.38400e-04, -4.53800e-05],
                           [-8.19500e-01, -3.82300e-01, -9.60500e-02,  6.98400e-04,  3.57300e-03,  7.94500e-04,  1.40200e-04, -3.18700e-05],
                           [-1.12900e-01, -3.54500e-02, -5.54800e-02, -1.63400e-02, -1.06400e-03,  6.19700e-04,  9.06800e-05, -3.10400e-05],
                           [-2.84900e-02,  1.11000e-01,  1.79300e-02, -8.35600e-03, -4.40600e-03, -5.93800e-04,  6.06800e-05,  2.93200e-05],
                           [-7.61600e-02,  4.95100e-02,  4.39700e-02,  7.30900e-03, -2.64700e-03, -1.19400e-03, -6.88000e-06,  8.35600e-05],
                           [-9.04000e-02, -5.81000e-02,  1.77600e-02,  1.34400e-02,  1.12300e-03, -6.36500e-04,  1.46800e-05,  5.50400e-05],
                           [-3.19000e-02, -8.82900e-02, -2.27600e-02,  7.14700e-03,  3.54800e-03,  3.04400e-04, -4.76900e-06, -2.25800e-05]])

# Reaction 6
chebyshev_reaction('bQOOH[O] (+ M) <=> bQOOHg (+ M)',
                   Tmin=180.0, Tmax=1500.0,
                   Pmin=(0.01, 'atm'), Pmax=(98.692, 'atm'),
                   coeffs=[[-6.02800e+00,  9.75400e-01,  8.55100e-02, -4.19700e-02, -3.16300e-02, -2.55500e-03,  3.77400e-03,  1.64600e-03],
                           [-4.99100e+00,  8.15500e-01,  9.16700e-02,  8.02600e-02,  2.31400e-02, -4.46300e-03, -4.77400e-03, -6.91600e-04],
                           [-3.64700e+00,  1.30900e-02, -1.25700e-01, -2.30800e-02,  1.46000e-02,  9.17300e-03,  6.85600e-04, -1.32600e-03],
                           [-1.93700e+00, -7.49700e-02, -3.87200e-02, -2.27400e-02, -6.44800e-03,  2.39700e-03,  2.09200e-03,  1.31500e-04],
                           [-9.13800e-01, -4.63700e-02, -2.29600e-03, -4.49100e-03, -6.12200e-03, -1.90200e-03,  7.94400e-04,  7.12800e-04],
                           [-3.50400e-01, -4.84300e-04,  6.05600e-03, -3.88300e-04, -2.82600e-03, -2.57600e-03, -6.06700e-04,  3.10600e-04],
                           [-1.74300e-01,  2.18900e-02,  2.43500e-02,  4.62400e-03,  8.14100e-04, -2.83600e-04, -8.28400e-04, -4.02300e-04],
                           [-1.14500e-01, -1.58300e-02,  1.63200e-02,  8.06000e-03,  2.05800e-03,  5.28600e-04, -4.93600e-05, -2.06600e-04],
                           [-3.35800e-02, -6.96500e-02, -1.28900e-02,  1.20500e-03,  7.66000e-04,  1.08900e-03,  5.43200e-04,  2.18600e-05],
                           [-4.09100e-02, -2.08400e-02, -1.67300e-02, -1.27600e-03,  2.62300e-04, -2.64600e-04,  1.24600e-04,  1.37400e-04]])

# Reaction 7
chebyshev_reaction('O2 + bR (+ M) <=> bQOOHg (+ M)',
                   Tmin=180.0, Tmax=1500.0,
                   Pmin=(0.01, 'atm'), Pmax=(98.692, 'atm'),
                   coeffs=[[ 4.35200e+00,  8.03100e-01, -3.72500e-02,  4.98000e-02, -5.60200e-02, -5.70500e-03,  7.45700e-04,  2.72900e-03],
                           [-3.29000e+00,  1.11300e+00, -8.90500e-02,  6.92600e-02,  4.21200e-02, -6.54600e-05, -5.67100e-04, -3.85400e-03],
                           [-2.23100e+00,  2.38700e-01, -1.19800e-02, -2.45000e-02,  1.77000e-02,  1.13000e-03,  1.41800e-03,  5.51700e-04],
                           [-1.18100e+00, -4.25500e-02,  1.44700e-02, -3.55300e-02, -1.89000e-03,  4.99600e-04,  7.28100e-04,  9.12400e-04],
                           [-5.15500e-01, -3.00500e-02,  2.96700e-02, -1.56300e-02, -5.65300e-03, -9.42900e-04, -5.56300e-04,  5.81600e-05],
                           [-2.16700e-01,  1.74900e-02,  3.90600e-02, -1.01400e-03, -3.56300e-03, -5.84700e-04, -3.72500e-04, -2.43800e-04],
                           [-1.30000e-01, -6.82000e-04,  3.80300e-02,  8.66500e-03, -6.58300e-04, -1.62300e-04, -8.03700e-05, -2.07300e-04],
                           [-8.84100e-02, -4.94400e-02,  1.61000e-02,  1.16200e-02,  1.41500e-03,  1.30900e-04,  1.22300e-04, -4.59800e-05],
                           [-4.95300e-02, -7.07900e-02, -1.13900e-02,  6.63100e-03,  2.38400e-03,  2.19600e-04,  1.43200e-04,  5.18800e-05],
                           [ 3.24700e-03, -4.50100e-02, -2.69000e-02, -1.79000e-03,  1.43700e-03,  3.36100e-04,  1.83700e-04,  1.05300e-04]])
#  bRO2(+M) <=> bQOOHa(+M)                             1.000e+00 0.000     0.000
#      TCHEB/ 180.000   1500.000 /
#      PCHEB/ 0.010     98.692   /
#      CHEB/ 10 8/
#      CHEB/ -3.049e+00   6.585e-01    2.067e-03    -4.396e-03   1.100e-03   /
#      CHEB/ 1.349e-04    -1.627e-04   7.776e-06    2.600e+00    1.011e+00   /
#      CHEB/ 2.417e-02    -6.283e-03   1.571e-03    2.177e-04    -1.759e-04  /
#      CHEB/ 1.880e-05    -3.245e+00   3.472e-01    4.937e-02    1.316e-03   /
#      CHEB/ 3.096e-04    1.311e-04    9.419e-05    2.254e-05    -2.077e+00  /
#      CHEB/ -1.828e-01   3.121e-02    9.475e-03    -5.998e-06   5.032e-05   /
#      CHEB/ 1.989e-04    4.330e-06    -9.753e-01   -3.133e-01   -1.743e-02  /
#      CHEB/ 9.702e-03    9.607e-04    4.960e-05    6.586e-05    -3.670e-05  /
#      CHEB/ -3.233e-01   -1.636e-01   -4.183e-02   1.161e-03    1.288e-03   /
#      CHEB/ 1.402e-04    -8.951e-05   -5.776e-05   -1.110e-01   -3.475e-03  /
#      CHEB/ -2.121e-02   -5.738e-03   -3.924e-04   7.129e-05    -3.000e-05  /
#      CHEB/ -1.432e-05   -5.041e-02   2.834e-02    1.014e-02    -2.701e-03  /
#      CHEB/ -2.236e-03   -3.263e-04   1.765e-04    7.072e-05    -7.595e-02  /
#      CHEB/ -2.078e-02   1.354e-02    5.251e-03    -1.430e-03   -6.497e-04  /
#      CHEB/ 2.223e-04    1.041e-04    -5.696e-03   -4.858e-02   -8.789e-03  /
#      CHEB/ 6.968e-03    1.582e-03    -3.422e-04   -1.461e-05   2.688e-05   /
#  bQOOHg(+M) <=> bQOOHa(+M)                           1.000e+00 0.000     0.000
#      TCHEB/ 180.000   1500.000 /
#      PCHEB/ 0.010     98.692   /
#      CHEB/ 10 8/
#      CHEB/ -4.355e+00   -5.601e-01   3.616e-02    6.109e-04    -2.861e-03  /
#      CHEB/ -3.027e-04   -8.695e-05   7.327e-05    -3.194e+00   1.912e+00   /
#      CHEB/ 1.531e-01    -6.654e-03   -1.806e-03   -7.431e-04   -1.100e-04  /
#      CHEB/ 9.802e-05    -4.314e+00   2.658e-01    1.504e-01    1.105e-02   /
#      CHEB/ -6.221e-04   9.794e-05    4.158e-05    -1.312e-05   -2.465e+00  /
#      CHEB/ -5.135e-01   -3.509e-03   2.208e-02    2.525e-03    3.116e-04   /
#      CHEB/ 2.384e-04    -4.538e-05   -8.301e-01   -3.823e-01   -9.605e-02  /
#      CHEB/ 6.984e-04    3.573e-03    7.945e-04    1.402e-04    -3.187e-05  /
#      CHEB/ -1.155e-01   -3.545e-02   -5.548e-02   -1.634e-02   -1.064e-03  /
#      CHEB/ 6.197e-04    9.068e-05    -3.104e-05   -2.926e-02   1.110e-01   /
#      CHEB/ 1.793e-02    -8.356e-03   -4.406e-03   -5.938e-04   6.068e-05   /
#      CHEB/ 2.932e-05    -7.643e-02   4.951e-02    4.397e-02    7.309e-03   /
#      CHEB/ -2.647e-03   -1.194e-03   -6.880e-06   8.356e-05    -9.042e-02  /
#      CHEB/ -5.810e-02   1.776e-02    1.344e-02    1.123e-03    -6.365e-04  /
#      CHEB/ 1.468e-05    5.504e-05    -3.183e-02   -8.829e-02   -2.276e-02  /
#      CHEB/ 7.147e-03    3.548e-03    3.044e-04    -4.769e-06   -2.258e-05  /

# Reaction 8
chebyshev_reaction('bQOOH[O] (+ M) <=> bQOOHa (+ M)',
                   Tmin=180.0, Tmax=1500.0,
                   Pmin=(0.01, 'atm'), Pmax=(98.692, 'atm'),
                   coeffs=[[-1.57400e+00,  9.98700e-01, -3.90100e-02, -3.26300e-02, -2.01200e-02, -2.46300e-03,  2.28800e-03,  1.27000e-03],
                           [-7.14800e+00,  1.26100e+00,  9.17400e-03,  4.90700e-02,  1.81800e-02, -2.24000e-03, -2.93800e-03, -5.20900e-04],
                           [-4.51200e+00,  1.67400e-01, -9.61400e-02, -2.29300e-02,  1.11600e-02,  6.72100e-03,  4.43200e-04, -7.96000e-04],
                           [-2.30600e+00, -1.49300e-01, -6.70700e-03, -8.23500e-03, -3.75700e-03,  2.45300e-03,  1.20600e-03, -2.20600e-04],
                           [-1.01000e+00, -1.83500e-01, -1.65900e-02,  8.25700e-03, -3.06600e-03, -7.24100e-04,  9.81900e-04,  3.87300e-04],
                           [-3.13600e-01, -6.26200e-02, -3.79700e-02, -4.14300e-04, -1.00800e-03, -2.10000e-03, -2.50800e-04,  4.11700e-04],
                           [-1.14700e-01,  5.78100e-02, -2.76100e-03, -4.86200e-03,  2.44300e-04, -6.98800e-04, -8.88800e-04, -1.69500e-04],
                           [-1.01600e-01,  5.03900e-02,  2.78800e-02,  1.03000e-04, -8.57100e-04,  7.92100e-05, -2.00000e-04, -1.69900e-04],
                           [-4.97600e-02, -4.58700e-02,  1.38400e-02,  4.39800e-03, -1.43200e-03,  4.15100e-04,  5.63900e-04,  1.53900e-05],
                           [-6.22300e-02, -5.00000e-02, -5.23900e-03,  7.90900e-03,  1.31400e-03, -3.10300e-04,  1.04000e-04,  3.70000e-05]])

# Reaction 9
chebyshev_reaction('O2 + bR (+ M) <=> bQOOHa (+ M)',
                   Tmin=180.0, Tmax=1500.0,
                   Pmin=(0.01, 'atm'), Pmax=(98.692, 'atm'),
                   coeffs=[[ 8.21300e+00,  8.86600e-01, -4.05100e-01, -9.35300e-03, -1.26000e-02,  1.90700e-02, -1.12000e-05, -3.81500e-03],
                           [-4.61100e+00,  1.58900e+00,  9.07400e-02,  6.96900e-02, -1.58300e-02, -2.53500e-02,  5.10900e-03,  5.18900e-03],
                           [-3.14900e+00,  3.87700e-01,  7.47900e-02,  1.94800e-02,  2.49000e-02, -5.82400e-03, -4.92300e-03, -4.28800e-04],
                           [-1.68100e+00, -1.54800e-01,  1.90400e-02, -8.59300e-03,  1.47700e-02,  5.46500e-03, -8.03800e-04, -1.60300e-03],
                           [-6.34600e-01, -1.94200e-01, -2.15000e-02, -1.66100e-02,  8.59200e-04,  4.17300e-03,  1.73100e-03, -1.18800e-04],
                           [-1.48100e-01, -4.03000e-02, -1.58000e-02, -1.58100e-02, -5.15500e-03,  4.89500e-04,  1.06400e-03,  5.63900e-04],
                           [-3.92200e-02,  5.98000e-02,  1.91000e-02, -7.95800e-03, -6.01700e-03, -1.48500e-03,  8.39800e-06,  3.42700e-04],
                           [-5.83000e-02,  3.68300e-02,  4.02100e-02,  4.92700e-03, -4.18500e-03, -1.89300e-03, -2.58900e-04,  4.88900e-05],
                           [-5.96900e-02, -4.04600e-02,  2.44300e-02,  1.40400e-02,  1.44500e-04, -1.35900e-03, -2.61100e-04, -7.16000e-05],
                           [-2.26900e-02, -7.38900e-02, -1.18100e-02,  1.16500e-02,  4.22500e-03, -7.41400e-05, -2.54000e-04, -1.50100e-04]])
#  bRO2(+M) <=> bQOOH[O](+M)                           1.000e+00 0.000     0.000
#      TCHEB/ 180.000   1500.000 /
#      PCHEB/ 0.010     98.692   /
#      CHEB/ 10 8/
#      CHEB/ -8.105e+00   1.996e+00    -8.989e-02   -2.051e-02   -5.439e-03  /
#      CHEB/ -1.954e-04   7.130e-04    3.883e-04    3.586e+00    3.337e-01   /
#      CHEB/ 1.712e-02    2.706e-02    6.722e-03    1.113e-03    -3.041e-04  /
#      CHEB/ -3.592e-04   -3.374e+00   4.017e-02    -8.585e-02   -1.622e-02  /
#      CHEB/ -2.312e-03   1.059e-03    1.137e-03    4.187e-04    -1.687e+00  /
#      CHEB/ 7.917e-02    -1.099e-02   -2.182e-03   -1.249e-03   -9.179e-04  /
#      CHEB/ -3.116e-04   -6.621e-05   -9.893e-01   1.456e-02    1.047e-02   /
#      CHEB/ 2.871e-03    1.932e-03    6.889e-04    1.228e-04    -1.076e-04  /
#      CHEB/ -5.251e-01   -5.587e-02   1.937e-03    -3.150e-03   -9.523e-04  /
#      CHEB/ 1.701e-04    2.717e-04    1.236e-04    -2.560e-01   -6.068e-02  /
#      CHEB/ 5.785e-03    2.017e-04    -1.077e-03   -2.425e-04   -4.044e-05  /
#      CHEB/ -4.091e-05   -1.149e-01   -4.594e-02   3.174e-03    2.373e-03   /
#      CHEB/ -6.488e-04   -1.280e-04   1.951e-05    -2.641e-05   -2.060e-03  /
#      CHEB/ -4.410e-02   -1.338e-02   -6.108e-04   -5.255e-04   -2.357e-05  /
#      CHEB/ 2.357e-04    1.166e-04    -2.323e-02   4.702e-03    -4.095e-03  /
#      CHEB/ 1.131e-03    -2.821e-04   -4.928e-04   -1.289e-04   -1.416e-05  /
#  bQOOHg(+M) <=> bQOOH[O](+M)                         1.000e+00 0.000     0.000
#      TCHEB/ 180.000   1500.000 /
#      PCHEB/ 0.010     98.692   /
#      CHEB/ 10 8/
#      CHEB/ -8.351e+00   9.754e-01    8.551e-02    -4.197e-02   -3.163e-02  /
#      CHEB/ -2.555e-03   3.774e-03    1.646e-03    -3.840e+00   8.155e-01   /
#      CHEB/ 9.167e-02    8.026e-02    2.314e-02    -4.463e-03   -4.774e-03  /
#      CHEB/ -6.916e-04   -3.798e+00   1.309e-02    -1.257e-01   -2.308e-02  /
#      CHEB/ 1.460e-02    9.173e-03    6.856e-04    -1.326e-03   -1.995e+00  /