units(length='cm', time='s', quantity='mol', act_energy='kcal/mol')

ideal_gas(name='gas',
          elements="H D T C Ci O Oi N Ne Ar He Si S F Cl Br I X",
          species="""propene3ol       OH               disub_c4ether
                     H2O              disub_epoxy      gQOOHa
                     propene1ol       gQOOHb           ipropylOOH
                     galdoxy          galkene          CH2O
                     O2               gRO2             gQOOHg
                     gR               galdol           monosub_c4ether
                     HO2              gQOOH[O]""",
          reactions='all',
          initial_state=state(temperature=300.0, pressure=OneAtm))

#-------------------------------------------------------------------------------
# Element data
#-------------------------------------------------------------------------------

element(symbol='Ci', atomic_mass=13.003)
element(symbol='D', atomic_mass=2.014)
element(symbol='Oi', atomic_mass=18.0)
element(symbol='T', atomic_mass=3.016)
element(symbol='X', atomic_mass=195.083)
#-------------------------------------------------------------------------------
# Species data
#-------------------------------------------------------------------------------

species(name='propene3ol',
        atoms='C:3 H:6 O:1',
        thermo=(NASA([10.00, 444.81],
                     [ 3.92769709E+00,  4.89977303E-03,  1.13094874E-04,
                      -2.59008187E-07,  1.86205760E-10, -1.67061842E+04,
                       9.90805416E+00]),
                NASA([444.81, 3000.00],
                     [ 2.61720343E+00,  3.01777872E-02, -1.76511625E-05,
                       5.14864061E-09, -5.91153761E-13, -1.67230847E+04,
                       1.36683107E+01])))

species(name='OH',
        atoms='H:1 O:1',
        thermo=(NASA([10.00, 984.14],
                     [ 3.49686242E+00,  1.83973160E-04, -9.97634499E-07,
                       1.56942783E-09, -6.10128175E-13,  3.41673934E+03,
                       1.48093120E+00]),
                NASA([984.14, 3000.00],
                     [ 3.45221464E+00, -2.95124034E-04,  7.39418622E-07,
                      -2.89309866E-10,  3.53041498E-14,  3.45751599E+03,
                       1.85813897E+00])))

species(name='disub_c4ether',
        atoms='C:4 H:8 O:2',
        thermo=(NASA([10.00, 413.50],
                     [ 3.78241323E+00,  1.89501763E-02,  8.65302396E-05,
                      -1.80580575E-07,  1.13656264E-10, -3.80488160E+04,
                       1.09982450E+01]),
                NASA([413.50, 3000.00],
                     [ 4.29420885E-01,  5.13851903E-02, -3.11292293E-05,
                       9.11498284E-09, -1.03192718E-12, -3.77715217E+04,
                       2.42134976E+01])))

species(name='H2O',
        atoms='H:2 O:1',
        thermo=(NASA([10.00, 773.84],
                     [ 4.00473541E+00, -2.39729134E-04,  8.11862955E-07,
                       1.47891862E-09, -1.19783539E-12, -3.03533807E+04,
                      -9.96254147E-02]),
                NASA([773.84, 3000.00],
                     [ 3.52133374E+00,  1.05377009E-03,  6.40722099E-07,
                      -3.86240235E-10,  5.49243294E-14, -3.02424794E+04,
                       2.34173094E+00])))

species(name='disub_epoxy',
        atoms='C:4 H:8 O:2',
        thermo=(NASA([10.00, 549.41],
                     [ 3.89863211E+00,  5.97532637E-03,  1.66685676E-04,
                      -3.10743768E-07,  1.78330192E-10, -3.63456867E+04,
                       1.13847308E+01]),
                NASA([549.41, 3000.00],
                     [-6.40277648E-01,  6.05960003E-02, -4.13427220E-05,
                       1.31555461E-08, -1.57685017E-12, -3.61725698E+04,
                       2.76005436E+01])))

species(name='gQOOHa',
        atoms='C:4 H:9 O:3',
        thermo=(NASA([10.00, 160.74],
                     [ 3.80808147E+00,  2.31043884E-02,  5.26945984E-04,
                      -3.11500696E-06,  6.03881958E-09, -2.46897555E+04,
                       1.17645316E+01]),
                NASA([160.74, 3000.00],
                     [ 2.90630300E+00,  6.50241173E-02, -4.60073244E-05,
                       1.51330930E-08, -1.87074267E-12, -2.46859309E+04,
                       1.36838819E+01])))

species(name='propene1ol',
        atoms='C:3 H:6 O:1',
        thermo=(NASA([10.00, 459.42],
                     [ 3.91245344E+00,  5.85800161E-03,  1.15412006E-04,
                      -2.68014417E-07,  1.91800131E-10, -1.95391741E+04,
                       8.14807684E+00]),
                NASA([459.42, 3000.00],
                     [ 3.14049093E+00,  2.95550898E-02, -1.73843684E-05,
                       5.11506211E-09, -5.92966137E-13, -1.96473966E+04,
                       9.32215170E+00])))

species(name='gQOOHb',
        atoms='C:4 H:9 O:3',
        thermo=(NASA([10.00, 1018.67],
                     [ 3.99028351E+00,  4.29665712E-02,  2.28338778E-05,
                      -5.67914439E-08,  2.29383258E-11, -2.46302207E+04,
                       1.20326731E+01]),
                NASA([1018.67, 3000.00],
                     [ 1.38304153E+01,  3.88527019E-02, -2.19473905E-05,
                       5.78719895E-09, -5.85097740E-13, -2.84263055E+04,
                      -4.44147388E+01])))

species(name='ipropylOOH',
        atoms='C:3 H:7 O:2',
        thermo=(NASA([10.00, 405.01],
                     [ 3.30075623E+00,  7.58672756E-02, -3.35754269E-04,
                       8.05972164E-07, -6.68864582E-10, -2.36404012E+02,
                       1.43372849E+01]),
                NASA([405.01, 3000.00],
                     [ 2.51742509E+00,  3.72760950E-02, -2.12450220E-05,
                       5.83593926E-09, -6.22110649E-13,  2.07003594E+02,
                       2.20991392E+01])))

species(name='galdoxy',
        atoms='C:4 H:7 O:2',
        thermo=(NASA([10.00, 209.62],
                     [ 3.82641108E+00,  1.84758886E-02,  3.43073800E-04,
                      -1.82817005E-06,  2.98516720E-09, -1.84884946E+04,
                       1.17972706E+01]),
                NASA([209.62, 3000.00],
                     [ 4.22049016E+00,  4.03370149E-02, -2.36129482E-05,
                       6.72979114E-09, -7.47862493E-13, -1.85695643E+04,
                       8.97211724E+00])))

species(name='galkene',
        atoms='C:4 H:8 O:1',
        thermo=(NASA([10.00, 383.47],
                     [ 3.84035604E+00,  1.20378740E-02,  1.87486319E-04,
                      -5.44759148E-07,  4.80711015E-10, -2.06489345E+04,
                       1.02570291E+01]),
                NASA([383.47, 3000.00],
                     [ 4.00413385E+00,  3.79025144E-02, -2.15435710E-05,
                       6.15213311E-09, -6.97446345E-13, -2.08642238E+04,
                       6.98052628E+00])))

species(name='CH2O',
        atoms='C:1 H:2 O:1',
        thermo=(NASA([10.00, 601.31],
                     [ 4.03190845E+00, -1.93233367E-03,  8.89743345E-06,
                       2.98105926E-09, -7.90813886E-12, -1.42276270E+04,
                       3.47574660E+00]),
                NASA([601.31, 3000.00],
                     [ 1.40134195E+00,  9.48858016E-03, -4.43088317E-06,
                       9.48452194E-10, -7.43790219E-14, -1.38013869E+04,
                       1.57423780E+01])))

species(name='O2',
        atoms='O:2',
        thermo=(NASA([10.00, 605.96],
                     [ 3.50743498E+00, -4.43860349E-04,  1.45938058E-06,
                       1.61509333E-09, -2.32050052E-12, -9.24756224E+02,
                       4.72183634E+00]),
                NASA([605.96, 3000.00],
                     [ 2.87462882E+00,  2.17840991E-03, -1.18262921E-06,
                       2.86910493E-10, -2.53297146E-14, -8.19517838E+02,
                       7.69331810E+00])))

species(name='gRO2',
        atoms='C:4 H:9 O:3',
        thermo=(NASA([10.00, 177.33],
                     [ 3.70632176E+00,  3.49733664E-02,  4.64036392E-04,
                      -3.18637835E-06,  6.38178607E-09, -2.69507989E+04,
                       1.24459269E+01]),
                NASA([177.33, 3000.00],
                     [ 4.82062697E+00,  5.17179689E-02, -3.18386818E-05,
                       9.52247045E-09, -1.10180288E-12, -2.70561695E+04,
                       7.14082953E+00])))

species(name='gQOOHg',
        atoms='C:4 H:9 O:3',
        thermo=(NASA([10.00, 475.03],
                     [ 3.42273720E+00,  4.98344215E-02,  6.47820920E-05,
                      -2.49842966E-07,  1.98636537E-10, -2.17162074E+04,
                       1.41578583E+01]),
                NASA([475.03, 3000.00],
                     [ 5.94049074E+00,  5.53778585E-02, -3.71708255E-05,
                       1.17540477E-08, -1.40812095E-12, -2.22571617E+04,
                       7.09201218E-01])))

species(name='gR',
        atoms='C:4 H:9 O:1',
        thermo=(NASA([10.00, 638.24],
                     [ 3.37074633E+00,  5.17529751E-02, -6.54872940E-05,
                       6.88084237E-08, -3.21569794E-11, -1.30916661E+04,
                       1.14339669E+01]),
                NASA([638.24, 3000.00],
                     [ 3.99410860E+00,  4.06314915E-02, -2.23932510E-05,
                       6.08356263E-09, -6.49884708E-13, -1.30242914E+04,
                       9.85769960E+00])))

species(name='galdol',
        atoms='C:4 H:8 O:2',
        thermo=(NASA([10.00, 506.68],
                     [ 3.85380874E+00,  9.21272695E-03,  1.86712348E-04,
                      -3.96417049E-07,  2.55528268E-10, -4.66784678E+04,
                       1.24312743E+01]),
                NASA([506.68, 3000.00],
                     [ 1.49710213E+00,  5.65979142E-02, -3.87709084E-05,
                       1.23682052E-08, -1.48287964E-12, -4.68090772E+04,
                       1.85531759E+01])))

species(name='monosub_c4ether',
        atoms='C:4 H:8 O:2',
        thermo=(NASA([10.00, 380.36],
                     [ 3.47743996E+00,  6.08051311E-02, -2.78518945E-04,
                       8.23182713E-07, -7.87158031E-10, -3.27731856E+04,
                       1.06415154E+01]),
                NASA([380.36, 3000.00],
                     [-1.09346901E+00,  5.35985968E-02, -3.21081420E-05,
                       9.20818293E-09, -1.01830294E-12, -3.20256256E+04,
                       3.35312368E+01])))

species(name='HO2',
        atoms='H:1 O:2',
        thermo=(NASA([10.00, 891.11],
                     [ 4.02887004E+00, -1.75769289E-03,  1.08726004E-05,
                      -1.13812972E-08,  3.90113097E-12,  4.95165001E+02,
                       4.69302008E+00]),
                NASA([891.11, 3000.00],
                     [ 3.06571044E+00,  4.28505005E-03, -2.19325920E-06,
                       5.58882699E-10, -5.61246669E-14,  5.98557610E+02,
                       8.84564156E+00])))

species(name='gQOOH[O]',
        atoms='C:4 H:9 O:3',
        thermo=(NASA([10.00, 535.23],
                     [ 3.83107445E+00,  1.02302002E-02,  2.29377261E-04,
                      -4.59095575E-07,  2.77765018E-10, -1.86308751E+04,
                       1.41034859E+01]),
                NASA([535.23, 3000.00],
                     [-4.19283096E-01,  7.69784620E-02, -5.57279000E-05,
                       1.81378295E-08, -2.18295635E-12, -1.86769885E+04,
                       2.72711816E+01])))

#-------------------------------------------------------------------------------
# Reaction data
#-------------------------------------------------------------------------------

# Reaction 1
chebyshev_reaction('gQOOH[O] (+ M) <=> gRO2 (+ M)',
                   Tmin=180.0, Tmax=1500.0,
                   Pmin=(0.01, 'atm'), Pmax=(98.692, 'atm'),
                   coeffs=[[ 4.73500e+00,  1.62500e+00, -1.83200e-01, -2.57900e-02,  2.18900e-03,  4.25100e-03,  3.20700e-04, -4.78000e-04],
                           [-6.23900e+00,  3.92000e-01,  5.77300e-02,  1.53600e-02, -3.07800e-03, -1.01900e-03, -4.38300e-04,  2.16500e-04],
                           [-3.67000e+00, -2.43400e-01, -1.00800e-01,  6.03100e-03,  1.32600e-02,  4.00400e-03, -1.15700e-03, -9.95600e-04],
                           [-1.86200e+00, -7.48500e-02, -4.35500e-02, -1.63500e-02, -4.81400e-04,  1.06200e-03,  4.60800e-04,  6.52900e-05],
                           [-8.83900e-01,  1.21400e-02,  2.31700e-02,  1.67800e-03, -3.27200e-04, -2.03500e-03, -9.21700e-04,  5.80300e-05],
                           [-3.83700e-01, -3.07700e-02,  1.34300e-02,  6.58500e-03,  3.42000e-03,  3.41900e-04, -4.90800e-04, -3.08400e-04],
                           [-1.77700e-01,  1.18100e-03, -2.04500e-03, -5.74000e-03, -1.67700e-03,  7.86900e-04,  7.11900e-04,  1.88400e-04],
                           [-3.08500e-02,  8.19600e-04, -4.50200e-03, -3.41700e-03, -3.28200e-03, -7.51100e-04,  2.39300e-04,  2.15400e-04],
                           [ 1.54400e-02,  1.55500e-02, -2.25000e-03, -3.46600e-04, -2.84100e-04,  6.60600e-05, -9.99800e-05, -1.90300e-04],
                           [-1.93600e-03,  2.04100e-02,  5.16700e-03,  2.02900e-03,  2.18300e-04,  6.40400e-05,  1.37700e-04, -2.80800e-06]])

# Reaction 2
chebyshev_reaction('gQOOHa (+ M) <=> gRO2 (+ M)',
                   Tmin=180.0, Tmax=1500.0,
                   Pmin=(0.01, 'atm'), Pmax=(98.692, 'atm'),
                   coeffs=[[ 2.09100e+00,  6.56200e-01, -3.17200e-02,  9.71300e-03, -3.18700e-03,  1.05300e-03,  5.46800e-05, -9.05000e-05],
                           [-3.53200e+00,  7.55000e-01,  2.64000e-02, -3.71500e-03,  7.02700e-04,  3.20300e-04,  2.43400e-04, -9.18300e-05],
                           [-3.84500e+00, -1.44700e-01,  7.66200e-02, -5.82300e-03,  8.01000e-04,  4.94300e-04, -1.74500e-04,  1.08500e-04],
                           [-1.76900e+00, -4.68600e-01, -7.28900e-03,  8.35700e-03, -2.63300e-04,  4.50100e-05, -3.57300e-05,  7.94400e-05],
                           [-6.32600e-01, -2.24000e-01, -7.58100e-02,  1.43900e-03,  1.98800e-03, -5.39500e-04,  9.40100e-05,  2.30300e-05],
                           [-2.06600e-01,  3.90400e-02, -3.33700e-02, -1.35900e-02,  7.17800e-04,  1.20100e-04, -9.23600e-05, -1.29100e-05],
                           [-7.98200e-02,  6.13100e-02,  2.85400e-02, -6.08700e-03, -3.34500e-03,  2.15700e-04, -8.33100e-05, -4.54200e-05],
                           [-3.62300e-02, -1.31000e-02,  2.06500e-02,  1.07100e-02, -1.91600e-03, -8.26800e-04,  2.79400e-05,  1.03200e-05],
                           [-2.06100e-02, -2.44100e-02, -1.80500e-02,  8.01800e-03,  3.20800e-03, -5.80800e-04, -8.48500e-05,  6.13800e-05],
                           [ 2.57200e-02,  1.53200e-02, -2.00500e-02, -6.99200e-03,  2.97600e-03,  1.04400e-03, -6.04300e-05, -4.06900e-05]])

# Reaction 3
chebyshev_reaction('gQOOHg (+ M) <=> gRO2 (+ M)',
                   Tmin=180.0, Tmax=1500.0,
                   Pmin=(0.01, 'atm'), Pmax=(98.692, 'atm'),
                   coeffs=[[ 3.38100e+00,  6.15400e-01, -3.74200e-02,  2.66400e-02, -3.30700e-03, -2.88300e-04,  1.78600e-04, -6.33500e-05],
                           [-1.94200e+00,  8.89800e-01, -7.78500e-03,  3.27700e-02, -2.10700e-03, -6.29100e-04,  2.00400e-04, -7.37500e-05],
                           [-3.54700e+00,  2.21300e-01,  7.12200e-02,  1.02100e-02,  1.78400e-03,  2.94200e-04, -1.14500e-04, -1.05900e-05],
                           [-2.33700e+00, -2.42100e-01,  4.40200e-02,  1.00000e-02,  2.32300e-03,  8.43300e-04,  1.69500e-05, -5.00800e-05],
                           [-1.13900e+00, -3.30000e-01, -4.01600e-02,  9.47900e-03,  4.00000e-03,  5.81300e-04,  2.48600e-04, -5.67400e-05],
                           [-4.00400e-01, -1.88600e-01, -8.41000e-02, -5.04700e-03,  4.76200e-03,  9.29500e-04,  1.81800e-04, -2.49300e-05],
                           [-6.07400e-02, -1.60500e-02, -6.25600e-02, -1.93800e-02,  8.51600e-04,  1.59700e-03,  2.23500e-04, -2.93100e-05],
                           [ 3.23800e-02,  7.90700e-02, -1.25400e-02, -1.88800e-02, -5.06600e-03,  9.43600e-04,  5.62200e-04,  4.16000e-05],
                           [ 3.74600e-02,  8.52900e-02,  2.35400e-02, -5.90700e-03, -7.31800e-03, -1.02800e-03,  6.81400e-04,  2.50700e-04],
                           [-5.44800e-03,  4.39500e-02,  2.93600e-02,  7.19900e-03, -4.13000e-03, -2.45200e-03,  1.97500e-04,  3.87200e-04]])

# Reaction 4
chebyshev_reaction('gQOOHb (+ M) <=> gRO2 (+ M)',
                   Tmin=180.0, Tmax=1500.0,
                   Pmin=(0.01, 'atm'), Pmax=(98.692, 'atm'),
                   coeffs=[[-3.72700e+00,  1.22500e+00, -5.60600e-02, -1.59600e-02, -7.84100e-04,  2.28800e-03,  2.29400e-04, -2.24200e-04],
                           [ 1.29600e+00,  1.72100e+00, -2.43200e-02, -2.03500e-02, -2.61000e-03,  2.68000e-03,  4.41100e-04, -2.16900e-04],
                           [-2.71600e+00,  4.05000e-01,  6.07800e-02,  1.47000e-02, -4.15200e-03, -6.92300e-04,  2.27900e-04,  1.79200e-04],
                           [-2.05200e+00, -3.17200e-01,  2.07700e-02,  2.85300e-02,  1.08100e-03, -2.06500e-03, -2.74700e-04,  2.93300e-04],
                           [-1.11600e+00, -3.19600e-01, -4.39700e-02,  5.62800e-03,  5.71200e-03, -1.31100e-04, -4.87100e-04,  5.55100e-05],
                           [-4.23800e-01, -9.90700e-02, -5.05900e-02, -1.61100e-02,  2.68900e-03,  1.45700e-03, -2.32500e-05, -1.17400e-04],
                           [-8.34500e-02,  2.97600e-02, -2.20700e-02, -1.46100e-02, -2.00600e-03,  5.39400e-04,  3.16200e-04, -1.78400e-05],
                           [ 1.59900e-02,  5.71400e-02,  1.96600e-03, -3.18600e-03, -2.71200e-03, -7.38500e-04,  9.48600e-05,  6.79900e-05],
                           [ 2.50100e-02,  4.80100e-02,  1.19500e-02,  3.46200e-03, -9.83700e-04, -7.16200e-04, -1.62200e-04, -3.11400e-06],
                           [ 8.94300e-03,  2.81900e-02,  1.19300e-02,  4.18000e-03,  5.38200e-04, -8.65000e-05, -1.37400e-04, -6.44600e-05]])

# Reaction 5
chebyshev_reaction('O2 + gR (+ M) <=> gRO2 (+ M)',
                   Tmin=180.0, Tmax=1500.0,
                   Pmin=(0.01, 'atm'), Pmax=(98.692, 'atm'),
                   coeffs=[[ 1.20500e+01,  9.96500e-01, -1.31000e-01,  2.74600e-02, -8.41500e-03,  2.74400e-03, -7.55200e-04,  1.45200e-04],
                           [-3.94900e+00,  9.88000e-01,  2.79200e-02, -1.06300e-02,  1.38500e-04, -4.65900e-04,  4.22800e-04, -1.64400e-04],
                           [-2.29700e+00,  2.55500e-01,  5.86100e-02,  1.66300e-03,  3.18900e-04, -7.44800e-04,  1.45500e-04, -8.93900e-06],
                           [-1.24700e+00, -3.19800e-02,  2.53000e-02,  9.46800e-05,  2.58100e-03, -4.52300e-04, -7.76800e-06,  1.61400e-05],
                           [-6.17000e-01, -8.80600e-02,  2.39200e-03, -2.61000e-03,  1.49700e-03,  1.88300e-05, -2.57700e-05,  2.51300e-05],
                           [-2.59100e-01, -6.81500e-02, -5.94500e-03, -2.30100e-03,  2.42700e-04,  6.17000e-05, -1.14500e-05,  1.48900e-05],
                           [-7.65700e-02, -2.99800e-02, -8.16100e-03, -8.54400e-04, -3.36800e-04,  3.76400e-05,  1.00300e-06, -2.94700e-06],
                           [-2.55500e-04,  1.20600e-03, -6.01400e-03, -1.27600e-04, -3.82500e-04, -1.22500e-05,  2.07000e-05, -1.05200e-05],
                           [ 1.79400e-02,  1.71800e-02, -1.79900e-03,  8.90500e-05, -2.31000e-04, -5.14600e-05,  2.09500e-05, -8.81800e-06],
                           [ 1.10200e-02,  1.85400e-02,  1.98800e-03,  1.70200e-04, -4.99300e-05, -5.27700e-05,  6.14700e-06, -4.91100e-06]])
#  gRO2(+M) <=> gQOOH[O](+M)                           1.000e+00 0.000     0.000
#      TCHEB/ 180.000   1500.000 /
#      PCHEB/ 0.010     98.692   /
#      CHEB/ 10 8/
#      CHEB/ -6.992e+00   1.625e+00    -1.832e-01   -2.579e-02   2.189e-03   /
#      CHEB/ 4.251e-03    3.207e-04    -4.780e-04   2.330e+00    3.920e-01   /
#      CHEB/ 5.773e-02    1.536e-02    -3.078e-03   -1.019e-03   -4.383e-04  /
#      CHEB/ 2.165e-04    -3.497e+00   -2.434e-01   -1.008e-01   6.031e-03   /
#      CHEB/ 1.326e-02    4.004e-03    -1.157e-03   -9.956e-04   -1.737e+00  /
#      CHEB/ -7.485e-02   -4.355e-02   -1.635e-02   -4.814e-04   1.062e-03   /
#      CHEB/ 4.608e-04    6.529e-05    -8.302e-01   1.214e-02    2.317e-02   /
#      CHEB/ 1.678e-03    -3.272e-04   -2.035e-03   -9.217e-04   5.803e-05   /
#      CHEB/ -3.646e-01   -3.077e-02   1.343e-02    6.585e-03    3.420e-03   /
#      CHEB/ 3.419e-04    -4.908e-04   -3.084e-04   -1.715e-01   1.181e-03   /
#      CHEB/ -2.045e-03   -5.740e-03   -1.677e-03   7.869e-04    7.119e-04   /
#      CHEB/ 1.884e-04    -2.894e-02   8.196e-04    -4.502e-03   -3.417e-03  /
#      CHEB/ -3.282e-03   -7.511e-04   2.393e-04    2.154e-04    1.590e-02   /
#      CHEB/ 1.555e-02    -2.250e-03   -3.466e-04   -2.841e-04   6.606e-05   /
#      CHEB/ -9.998e-05   -1.903e-04   -1.965e-03   2.041e-02    5.167e-03   /
#      CHEB/ 2.029e-03    2.183e-04    6.404e-05    1.377e-04    -2.808e-06  /

# Reaction 6
chebyshev_reaction('gQOOHa (+ M) <=> gQOOH[O] (+ M)',
                   Tmin=180.0, Tmax=1500.0,
                   Pmin=(0.01, 'atm'), Pmax=(98.692, 'atm'),
                   coeffs=[[-8.84200e+00,  8.42400e-01, -2.89700e-01, -2.06200e-02, -8.70400e-03,  8.61000e-03,  1.12300e-03, -7.94400e-04],
                           [-2.47000e+00,  1.14600e+00,  1.41800e-01,  1.13200e-03,  4.77300e-03, -4.81300e-03, -5.87400e-04,  6.73500e-04],
                           [-5.01900e+00, -5.33900e-01, -4.08200e-02,  9.99900e-03,  2.10200e-02,  5.35500e-03, -3.00500e-03, -1.22900e-03],
                           [-2.12400e+00, -4.33600e-01, -9.08800e-02, -1.03300e-02,  1.50600e-03,  2.32000e-03,  2.84200e-04, -1.05100e-04],
                           [-6.86000e-01, -3.74500e-03, -5.46400e-02, -5.15500e-03,  3.76500e-04, -2.54600e-03, -5.72900e-04,  1.73300e-04],
                           [-2.19900e-01,  1.35600e-01,  4.94300e-03, -8.83900e-03,  2.31700e-03,  1.07600e-04, -4.51800e-04, -2.25900e-04],
                           [-1.59700e-01,  8.87700e-02,  4.60200e-02, -8.22300e-03, -4.70200e-03,  6.20900e-04,  5.48500e-04,  1.83500e-04],
                           [-6.85000e-02, -4.08500e-02,  2.04800e-02,  1.11800e-02, -3.98000e-03, -1.56000e-03,  5.24700e-05,  1.99700e-04],
                           [-9.26600e-03, -4.62500e-02, -2.37100e-02,  7.51100e-03,  4.06200e-03, -1.96600e-04, -3.48300e-04, -1.82500e-04],
                           [ 6.24000e-03,  1.19000e-02, -2.10100e-02, -5.83700e-03,  2.89200e-03,  1.33300e-03,  1.61700e-04, -6.81800e-05]])

# Reaction 7
chebyshev_reaction('gQOOHg (+ M) <=> gQOOH[O] (+ M)',
                   Tmin=180.0, Tmax=1500.0,
                   Pmin=(0.01, 'atm'), Pmax=(98.692, 'atm'),
                   coeffs=[[-5.97600e+00,  8.21000e-01, -1.92100e-01, -6.17900e-02, -5.78800e-03,  1.09000e-02,  2.02100e-03, -1.05500e-03],
                           [-2.38300e+00,  8.46600e-01,  1.18500e-01,  1.02600e-01, -1.04100e-02, -1.04000e-02,  8.36500e-05,  1.08000e-03],
                           [-4.34400e+00, -3.16000e-01, -7.31400e-02,  4.02100e-02,  2.70700e-02,  2.45100e-03, -3.10900e-03, -1.29200e-03],
                           [-2.43200e+00, -2.21500e-01, -2.50800e-02, -1.71800e-02,  2.17000e-03,  3.41700e-03,  6.23300e-04, -6.70300e-05],
                           [-1.10600e+00, -1.46700e-01,  1.98400e-03,  6.15000e-03, -2.35100e-03, -1.53700e-03,  4.90300e-05,  1.85300e-04],
                           [-3.90700e-01, -1.24100e-01, -4.32100e-02,  6.74500e-03,  5.36700e-03,  6.24900e-04, -2.27400e-06, -2.52300e-04],
                           [-1.31000e-01,  1.35000e-02, -5.47400e-02, -1.86500e-02,  5.64200e-04,  2.00100e-03,  8.70700e-04,  1.42700e-04],
                           [ 1.39500e-02,  5.76600e-02, -1.51200e-02, -1.99100e-02, -6.60600e-03,  1.95100e-04,  6.16600e-04,  2.75600e-04],
                           [ 2.20300e-02,  7.32700e-02,  1.71000e-02, -7.62400e-03, -6.44600e-03, -7.72700e-04,  4.17500e-04,  6.59700e-05],
                           [-7.14500e-03,  4.13600e-02,  3.08300e-02,  7.54500e-03, -4.25100e-03, -2.23900e-03,  3.87000e-04,  3.88500e-04]])

# Reaction 8
chebyshev_reaction('gQOOHb (+ M) <=> gQOOH[O] (+ M)',
                   Tmin=180.0, Tmax=1500.0,
                   Pmin=(0.01, 'atm'), Pmax=(98.692, 'atm'),
                   coeffs=[[-1.34500e+01,  1.53600e+00, -2.04400e-01, -8.82900e-02, -1.25300e-02,  1.10700e-02,  3.29500e-03, -5.61800e-04],
                           [ 1.45400e+00,  1.68800e+00,  1.22400e-01,  3.09200e-02, -3.44800e-03, -5.75200e-03, -6.57800e-04,  6.50300e-04],
                           [-3.73700e+00, -3.49200e-01, -9.91200e-02,  4.29900e-02,  2.76100e-02,  3.56100e-03, -3.81100e-03, -1.73200e-03],
                           [-2.15300e+00, -2.98600e-01, -5.18000e-02, -4.53000e-03, -9.47800e-04,  2.31900e-04,  8.31100e-04,  3.99800e-04],
                           [-1.02000e+00, -5.62300e-02,  1.59000e-02, -6.21700e-04, -4.30100e-03, -3.46700e-03, -1.18900e-04,  6.31500e-04],
                           [-4.08500e-01, -2.75400e-02, -2.74400e-03,  1.08100e-04,  3.35600e-03,  6.95900e-04, -3.19000e-04, -3.28600e-04],
                           [-1.62800e-01,  3.04800e-02, -1.77500e-02, -1.18100e-02, -5.85500e-04,  1.30600e-03,  6.24900e-04,  2.60800e-05],
                           [-1.17800e-02,  3.08500e-02, -4.72200e-03, -5.27900e-03, -4.23000e-03, -1.06100e-03,  9.10500e-05,  2.45400e-04],
                           [ 2.48500e-02,  4.16000e-02,  6.50500e-03,  5.59600e-04, -1.00300e-03, -4.61700e-04, -2.86100e-04, -1.46700e-04],
                           [-5.83300e-03,  3.00800e-02,  1.34800e-02,  4.95300e-03,  1.79100e-04, -1.03800e-04,  6.88600e-05, -2.47900e-05]])

# Reaction 9
chebyshev_reaction('O2 + gR (+ M) <=> gQOOH[O] (+ M)',
                   Tmin=180.0, Tmax=1500.0,
                   Pmin=(0.01, 'atm'), Pmax=(98.692, 'atm'),
                   coeffs=[[ 3.49700e+00,  1.90400e+00, -1.33400e-01, -1.45300e-01, -4.94700e-02,  1.89900e-02,  1.21100e-02,  7.67300e-04],
                           [-5.35900e+00, -3.45400e-02,  5.29700e-02,  1.67700e-01,  4.25100e-02, -2.17000e-02, -1.37900e-02, -6.09200e-04],
                           [-2.82500e+00, -2.08100e-01, -1.14700e-01, -7.79800e-03,  2.56400e-02,  8.00200e-03, -6.78500e-04, -1.93700e-03],
                           [-1.27500e+00,  5.20600e-02, -1.10400e-02, -4.09900e-02, -7.88600e-03,  1.87300e-03,  2.68300e-03,  5.71200e-04],
                           [-5.68800e-01,  9.70100e-02,  6.57800e-02,  1.92900e-04, -6.66800e-03, -3.74200e-03, -5.49700e-04,  5.73800e-04],
                           [-2.43200e-01, -1.79200e-02,  3.55300e-02,  1.44000e-02,  2.65500e-03, -3.05800e-04, -7.83200e-04, -2.60900e-04],
                           [-1.44400e-01, -5.82900e-03, -6.41500e-03, -9.17900e-05,  1.72700e-04,  1.09300e-03,  5.30700e-04,  2.92400e-05],
                           [-2.19600e-02, -2.21500e-02, -9.95400e-03, -1.33800e-03, -2.57900e-03, -8.52100e-04,  1.56900e-04,  2.95500e-04],
                           [ 8.89800e-03,  8.61700e-03, -1.01000e-02, -2.40800e-03,  5.26500e-04,  3.59900e-04, -1.78700e-04, -2.61200e-04],
                           [ 3.84200e-03,  1.57800e-02,  4.48500e-03,  1.15000e-03, -4.69300e-04, -1.78200e-04,  1.88200e-04,  8.17800e-05]])
#  gRO2(+M) <=> gQOOHa(+M)                             1.000e+00 0.000     0.000
#      TCHEB/ 180.000   1500.000 /
#      PCHEB/ 0.010     98.692   /
#      CHEB/ 10 8/
#      CHEB/ -1.272e+00   6.562e-01    -3.172e-02   9.713e-03    -3.187e-03  /
#      CHEB/ 1.053e-03    5.468e-05    -9.050e-05   -9.119e-01   7.550e-01   /
#      CHEB/ 2.640e-02    -3.715e-03   7.027e-04    3.203e-04    2.434e-04   /
#      CHEB/ -9.183e-05   -3.684e+00   -1.447e-01   7.662e-02    -5.823e-03  /
#      CHEB/ 8.010e-04    4.943e-04    -1.745e-04   1.085e-04    -1.695e+00  /
#      CHEB/ -4.686e-01   -7.289e-03   8.357e-03    -2.633e-04   4.501e-05   /
#      CHEB/ -3.573e-05   7.944e-05    -6.041e-01   -2.240e-01   -7.581e-02  /
#      CHEB/ 1.439e-03    1.988e-03    -5.395e-04   9.401e-05    2.303e-05   /
#      CHEB/ -1.968e-01   3.904e-02    -3.337e-02   -1.359e-02   7.178e-04   /
#      CHEB/ 1.201e-04    -9.236e-05   -1.291e-05   -7.691e-02   6.131e-02   /
#      CHEB/ 2.854e-02    -6.087e-03   -3.345e-03   2.157e-04    -8.331e-05  /
#      CHEB/ -4.542e-05   -3.559e-02   -1.310e-02   2.065e-02    1.071e-02   /
#      CHEB/ -1.916e-03   -8.268e-04   2.794e-05    1.032e-05    -2.061e-02  /
#      CHEB/ -2.441e-02   -1.805e-02   8.018e-03    3.208e-03    -5.808e-04  /
#      CHEB/ -8.485e-05   6.138e-05    2.560e-02    1.532e-02    -2.005e-02  /
#      CHEB/ -6.992e-03   2.976e-03    1.044e-03    -6.043e-05   -4.069e-05  /
#  gQOOH[O](+M) <=> gQOOHa(+M)                         1.000e+00 0.000     0.000
#      TCHEB/ 180.000   1500.000 /
#      PCHEB/ 0.010     98.692   /
#      CHEB/ 10 8/
#      CHEB/ -4.788e-01   8.424e-01    -2.897e-01   -2.062e-02   -8.704e-03  /
#      CHEB/ 8.610e-03    1.123e-03    -7.944e-04   -8.419e+00   1.146e+00   /
#      CHEB/ 1.418e-01    1.132e-03    4.773e-03    -4.813e-03   -5.874e-04  /
#      CHEB/ 6.735e-04    -5.031e+00   -5.339e-01   -4.082e-02   9.999e-03   /
#      CHEB/ 2.102e-02    5.355e-03    -3.005e-03   -1.229e-03   -2.175e+00  /
#      CHEB/ -4.336e-01   -9.088e-02   -1.033e-02   1.506e-03    2.320e-03   /
#      CHEB/ 2.842e-04    -1.051e-04   -7.111e-01   -3.745e-03   -5.464e-02  /
#      CHEB/ -5.155e-03   3.765e-04    -2.546e-03   -5.729e-04   1.733e-04   /
#      CHEB/ -2.292e-01   1.356e-01    4.943e-03    -8.839e-03   2.317e-03   /
#      CHEB/ 1.076e-04    -4.518e-04   -2.259e-04   -1.630e-01   8.877e-02   /
#      CHEB/ 4.602e-02    -8.223e-03   -4.702e-03   6.209e-04    5.485e-04   /
#      CHEB/ 1.835e-04    -6.979e-02   -4.085e-02   2.048e-02    1.118e-02   /
#      CHEB/ -3.980e-03   -1.560e-03   5.247e-05    1.997e-04    -9.731e-03  /
#      CHEB/ -4.625e-02   -2.371e-02   7.511e-03    4.062e-03    -1.966e-04  /