units(length='cm', time='s', quantity='mol', act_energy='kcal/mol')

ideal_gas(name='gas',
          elements="H D T C Ci O Oi N Ne Ar He Si S F Cl Br I X",
          species="""aOOHbalkene      OH               ibutanal
                     aR               performic_acid   disub_c4ether
                     aQOOHb           H                aadduct
                     trisub_epoxy     ibutenol         aQOOH[O]
                     ipropyl          aRO2             O2
                     formic_acid      propene          aQOOHg
                     ibut_peroxyacid  HO2              CH3""",
          reactions='all',
          initial_state=state(temperature=300.0, pressure=OneAtm))

#-------------------------------------------------------------------------------
# Element data
#-------------------------------------------------------------------------------

element(symbol='Ci', atomic_mass=13.003)
element(symbol='D', atomic_mass=2.014)
element(symbol='Oi', atomic_mass=18.0)
element(symbol='T', atomic_mass=3.016)
element(symbol='X', atomic_mass=195.083)
#-------------------------------------------------------------------------------
# Species data
#-------------------------------------------------------------------------------

species(name='aOOHbalkene',
        atoms='C:3 H:6 O:3',
        thermo=(NASA([10.00, 497.41],
                     [ 3.76691735E+00,  1.51417956E-02,  1.85499431E-04,
                      -4.61303214E-07,  3.27678941E-10, -2.96221608E+04,
                       1.09903968E+01]),
                NASA([497.41, 3000.00],
                     [ 6.20882781E+00,  4.08866173E-02, -2.89934946E-05,
                       9.60428979E-09, -1.19355432E-12, -3.04264901E+04,
                      -4.72842811E+00])))

species(name='OH',
        atoms='H:1 O:1',
        thermo=(NASA([10.00, 984.14],
                     [ 3.49686242E+00,  1.83973160E-04, -9.97634499E-07,
                       1.56942783E-09, -6.10128175E-13,  3.41673934E+03,
                       1.48093120E+00]),
                NASA([984.14, 3000.00],
                     [ 3.45221464E+00, -2.95124034E-04,  7.39418622E-07,
                      -2.89309866E-10,  3.53041498E-14,  3.45751599E+03,
                       1.85813897E+00])))

species(name='ibutanal',
        atoms='C:4 H:8 O:1',
        thermo=(NASA([10.00, 683.88],
                     [ 3.57157346E+00,  3.36936906E-02, -1.78475021E-05,
                       1.31946716E-08, -7.58008388E-12, -2.68821814E+04,
                       1.05595084E+01]),
                NASA([683.88, 3000.00],
                     [ 1.29043622E+00,  4.14804229E-02, -2.27411206E-05,
                       6.08619500E-09, -6.38995128E-13, -2.64402623E+04,
                       2.16477430E+01])))

species(name='aR',
        atoms='C:4 H:9 O:1',
        thermo=(NASA([10.00, 455.22],
                     [ 3.59625500E+00,  3.38947981E-02,  7.37257079E-06,
                      -3.99275335E-08,  2.49019944E-11, -1.21847708E+04,
                       1.18269265E+01]),
                NASA([455.22, 3000.00],
                     [ 2.49586309E+00,  4.35639890E-02, -2.44887770E-05,
                       6.73363769E-09, -7.23862433E-13, -1.20845877E+04,
                       1.62696907E+01])))

species(name='performic_acid',
        atoms='C:1 H:2 O:3',
        thermo=(NASA([10.00, 590.95],
                     [ 3.92633851E+00,  4.24517168E-03,  6.71106764E-05,
                      -1.36545385E-07,  8.03337864E-11, -3.63028176E+04,
                       8.06485813E+00]),
                NASA([590.95, 3000.00],
                     [ 4.39992934E+00,  1.85411415E-02, -1.36005501E-05,
                       4.62292431E-09, -5.88463603E-13, -3.66643888E+04,
                       3.44353230E+00])))

species(name='disub_c4ether',
        atoms='C:4 H:8 O:2',
        thermo=(NASA([10.00, 413.50],
                     [ 3.78241323E+00,  1.89501763E-02,  8.65302396E-05,
                      -1.80580575E-07,  1.13656264E-10, -3.99050624E+04,
                       1.09982450E+01]),
                NASA([413.50, 3000.00],
                     [ 4.29420885E-01,  5.13851903E-02, -3.11292293E-05,
                       9.11498284E-09, -1.03192718E-12, -3.96277681E+04,
                       2.42134976E+01])))

species(name='aQOOHb',
        atoms='C:4 H:9 O:3',
        thermo=(NASA([10.00, 412.78],
                     [ 3.15498836E+00,  8.55068303E-02, -2.35307993E-04,
                       4.71983261E-07, -3.62709267E-10, -2.89003725E+04,
                       1.52522123E+01]),
                NASA([412.78, 3000.00],
                     [ 4.18099845E+00,  5.26168288E-02, -3.23998410E-05,
                       9.59389339E-09, -1.09464519E-12, -2.87895775E+04,
                       1.35782328E+01])))

species(name='H',
        atoms='H:1',
        thermo=(NASA([10.00, 794.01],
                     [ 2.50000000E+00,  1.99051163E-15, -1.19089508E-17,
                       2.10805655E-20, -1.11017699E-23,  2.54725594E+04,
                      -4.61279342E-01]),
                NASA([794.01, 3000.00],
                     [ 2.50000000E+00,  1.52667235E-14, -1.58445285E-17,
                       6.63088600E-21, -9.62111674E-25,  2.54725594E+04,
                      -4.61279342E-01])))

species(name='aadduct',
        atoms='C:4 H:9 O:3',
        thermo=(NASA([10.00, 449.84],
                     [ 3.06901904E+00,  9.20724491E-02, -2.68085092E-04,
                       5.15249897E-07, -3.68046586E-10, -3.14530220E+04,
                       1.46591735E+01]),
                NASA([449.84, 3000.00],
                     [ 4.11210745E+00,  5.16955724E-02, -2.97401041E-05,
                       8.32758939E-09, -9.08861448E-13, -3.12321810E+04,
                       1.39578825E+01])))

species(name='trisub_epoxy',
        atoms='C:4 H:8 O:2',
        thermo=(NASA([10.00, 209.19],
                     [ 3.75295042E+00,  2.37546930E-02,  1.26610110E-04,
                      -4.78364365E-07,  5.79468168E-10, -3.96656313E+04,
                       1.12739684E+01]),
                NASA([209.19, 3000.00],
                     [ 2.64185254E+00,  4.50006531E-02, -2.57361066E-05,
                       7.15266054E-09, -7.72980731E-13, -3.96191457E+04,
                       1.48960343E+01])))

species(name='ibutenol',
        atoms='C:4 H:8 O:1',
        thermo=(NASA([10.00, 135.97],
                     [ 3.95714996E+00,  5.72646980E-03,  4.63611760E-04,
                      -3.04137514E-06,  6.85019471E-09, -2.30778016E+04,
                       8.21931848E+00]),
                NASA([135.97, 3000.00],
                     [ 3.32467612E+00,  3.69033556E-02, -1.89960416E-05,
                       4.73417677E-09, -4.59705291E-13, -2.30722229E+04,
                       9.58133237E+00])))

species(name='aQOOH[O]',
        atoms='C:4 H:9 O:3',
        thermo=(NASA([10.00, 488.36],
                     [ 3.54559533E+00,  3.89536133E-02,  8.47689703E-05,
                      -2.45147486E-07,  1.76157259E-10, -2.27690103E+04,
                       1.34685910E+01]),
                NASA([488.36, 3000.00],
                     [ 3.94214913E+00,  5.71928314E-02, -3.72516212E-05,
                       1.15209013E-08, -1.35808341E-12, -2.30639713E+04,
                       9.21628964E+00])))

species(name='ipropyl',
        atoms='C:3 H:7',
        thermo=(NASA([10.00, 421.76],
                     [ 3.73943775E+00,  3.10070157E-02, -1.51196908E-04,
                       4.35367329E-07, -3.85565052E-10,  9.49213457E+03,
                       7.79448918E+00]),
                NASA([421.76, 3000.00],
                     [-4.74526725E-01,  3.20862468E-02, -1.67340747E-05,
                       4.21365136E-09, -4.13155573E-13,  1.01934458E+04,
                       2.85865912E+01])))

species(name='aRO2',
        atoms='C:4 H:9 O:3',
        thermo=(NASA([10.00, 670.36],
                     [ 3.45405325E+00,  4.74751311E-02,  9.77507759E-06,
                      -6.31019603E-08,  3.75500067E-11, -3.31190501E+04,
                       1.39284976E+01]),
                NASA([670.36, 3000.00],
                     [ 5.04137652E+00,  5.19952978E-02, -3.16472789E-05,
                       9.22798587E-09, -1.03598915E-12, -3.36462426E+04,
                       4.56056770E+00])))

species(name='O2',
        atoms='O:2',
        thermo=(NASA([10.00, 605.96],
                     [ 3.50743498E+00, -4.43860349E-04,  1.45938058E-06,
                       1.61509333E-09, -2.32050052E-12, -9.24756224E+02,
                       4.72183634E+00]),
                NASA([605.96, 3000.00],
                     [ 2.87462882E+00,  2.17840991E-03, -1.18262921E-06,
                       2.86910493E-10, -2.53297146E-14, -8.19517838E+02,
                       7.69331810E+00])))

species(name='formic_acid',
        atoms='C:1 H:2 O:2',
        thermo=(NASA([10.00, 741.38],
                     [ 4.06855785E+00, -4.74562133E-03,  4.71797900E-05,
                      -6.07490052E-08,  2.51286794E-11, -4.66880837E+04,
                       6.53681035E+00]),
                NASA([741.38, 3000.00],
                     [ 1.13645847E+00,  1.74953124E-02, -1.08112403E-05,
                       3.08075326E-09, -3.34892658E-13, -4.64297918E+04,
                       1.86149484E+01])))

species(name='propene',
        atoms='C:3 H:6',
        thermo=(NASA([10.00, 519.53],
                     [ 3.98723879E+00,  4.72040503E-04,  6.51776229E-05,
                      -9.89891002E-08,  4.91141123E-11,  2.99281572E+03,
                       6.98071210E+00]),
                NASA([519.53, 3000.00],
                     [ 3.79893331E-01,  2.82457690E-02, -1.50108430E-05,
                       3.90894069E-09, -4.00521928E-13,  3.36764307E+03,
                       2.20218922E+01])))

species(name='aQOOHg',
        atoms='C:4 H:9 O:3',
        thermo=(NASA([10.00, 455.48],
                     [ 3.62522127E+00,  2.83222320E-02,  2.08527447E-04,
                      -5.67427418E-07,  4.35169138E-10, -2.50389896E+04,
                       1.26617758E+01]),
                NASA([455.48, 3000.00],
                     [ 5.13914202E+00,  5.96270859E-02, -4.14435328E-05,
                       1.34202375E-08, -1.63474553E-12, -2.56395460E+04,
                       1.46991116E+00])))

species(name='ibut_peroxyacid',
        atoms='C:4 H:8 O:3',
        thermo=(NASA([10.00, 1386.21],
                     [ 3.50995385E+00,  4.78670384E-02, -2.40781384E-05,
                       3.71046938E-09,  3.85442115E-13, -4.89468118E+04,
                       1.22017268E+01]),
                NASA([1386.21, 3000.00],
                     [ 1.24543146E+01,  3.02396862E-02, -1.38577031E-05,
                       3.05328904E-09, -2.63982457E-13, -5.22126951E+04,
                      -3.67061828E+01])))

species(name='HO2',
        atoms='H:1 O:2',
        thermo=(NASA([10.00, 891.11],
                     [ 4.02887004E+00, -1.75769289E-03,  1.08726004E-05,
                      -1.13812972E-08,  3.90113097E-12,  4.95165001E+02,
                       4.69302008E+00]),
                NASA([891.11, 3000.00],
                     [ 3.06571044E+00,  4.28505005E-03, -2.19325920E-06,
                       5.58882699E-10, -5.61246669E-14,  5.98557610E+02,
                       8.84564156E+00])))

species(name='CH3',
        atoms='C:1 H:3',
        thermo=(NASA([10.00, 616.77],
                     [ 3.98929952E+00,  5.45150461E-04,  9.01320092E-06,
                      -1.08320497E-08,  4.38985879E-12,  1.65859883E+04,
                       2.22446886E-01]),
                NASA([616.77, 3000.00],
                     [ 3.35928237E+00,  4.63117126E-03, -9.24365433E-07,
                      -9.02514624E-11,  3.56905106E-14,  1.66637014E+04,
                       2.95743732E+00])))

#-------------------------------------------------------------------------------
# Reaction data
#-------------------------------------------------------------------------------

# Reaction 1
chebyshev_reaction('aQOOH[O] (+ M) <=> aQOOHb (+ M)',
                   Tmin=180.0, Tmax=1500.0,
                   Pmin=(0.01, 'atm'), Pmax=(98.692, 'atm'),
                   coeffs=[[-1.07600e+01,  5.36100e+00, -1.02000e+00,  1.12900e-01,  6.25400e-02, -2.97700e-02,  1.15500e-02, -2.81300e-03],
                           [-3.22100e+00,  1.26000e+00,  8.31200e-01, -3.38800e-01, -6.10300e-02,  5.02200e-02, -1.38400e-02,  2.85800e-03],
                           [-3.27400e+00, -7.38200e-02,  3.24100e-01,  2.35000e-02, -3.72300e-03, -3.11900e-03, -1.29300e-03, -1.20400e-03],
                           [-1.67200e+00, -5.06900e-01,  1.54600e-02,  4.91100e-02,  4.07300e-03,  1.27900e-03,  9.93200e-04, -1.25300e-03],
                           [-6.96900e-01, -2.96900e-01, -4.86700e-02,  4.58500e-03, -7.18400e-03,  1.01300e-03,  2.78800e-03,  3.65100e-04],
                           [-2.89200e-01, -7.25700e-02, -2.39200e-02, -1.28400e-02, -1.19400e-02, -1.63000e-03,  2.21500e-03,  4.69600e-04],
                           [-1.55400e-01,  1.79300e-02,  6.16700e-03, -4.85900e-03, -7.70500e-03, -1.98300e-03,  1.24300e-04, -3.64600e-05],
                           [-3.26600e-02,  2.84600e-02,  1.29800e-02,  4.66000e-03, -5.61300e-04, -1.62200e-03, -9.82300e-04, -1.67300e-04],
                           [-1.42200e-02,  1.27200e-02,  1.01900e-02,  9.71200e-03,  3.17400e-03, -6.93900e-04, -4.47500e-04, -2.65600e-04],
                           [ 1.88700e-02, -1.84000e-03, -8.36100e-04,  3.60400e-03,  2.92000e-03,  8.16200e-04, -1.52500e-04,  1.51300e-07]])

# Reaction 2
chebyshev_reaction('aQOOHg (+ M) <=> aQOOHb (+ M)',
                   Tmin=180.0, Tmax=1500.0,
                   Pmin=(0.01, 'atm'), Pmax=(98.692, 'atm'),
                   coeffs=[[-8.41700e+00,  3.39700e+00, -4.75900e-01, -1.51100e-01,  1.69600e-02,  1.78400e-02, -1.24600e-03, -2.28900e-03],
                           [-2.87100e+00,  3.12200e+00,  4.42500e-01, -8.56800e-02, -2.14400e-02,  2.49800e-04,  3.11000e-04,  3.02300e-04],
                           [-3.83200e+00, -8.58200e-01,  1.92100e-01,  1.77200e-01,  3.31000e-03, -1.77800e-02, -2.86400e-03,  2.00800e-03],
                           [-1.89000e+00, -1.00800e+00, -1.52600e-01,  7.93900e-02,  2.01000e-02, -1.62100e-03,  6.67600e-04,  7.20000e-06],
                           [-6.22000e-01, -3.50900e-01, -1.72600e-01, -3.40400e-02,  8.68800e-03,  7.16200e-03,  1.86600e-03, -7.33000e-04],
                           [-1.69400e-01,  3.74600e-02, -3.39000e-02, -5.08200e-02, -9.51200e-03,  4.87600e-03,  1.14400e-03, -5.00500e-04],
                           [-4.76900e-02,  9.57400e-02,  5.62900e-02, -1.09300e-02, -1.33600e-02, -2.19700e-03,  6.17000e-04,  2.34600e-04],
                           [-2.25900e-02,  1.90800e-02,  4.29600e-02,  1.75100e-02, -1.43700e-03, -4.46100e-03, -8.47500e-04,  5.40500e-04],
                           [-1.21800e-02, -2.61700e-02, -3.52800e-03,  1.07900e-02,  7.84200e-03, -3.51200e-04, -1.44300e-03, -2.83600e-05],
                           [-2.11100e-02, -1.30000e-02, -1.98700e-02, -5.06600e-03,  4.50800e-03,  2.88000e-03, -2.97300e-05, -4.82300e-04]])

# Reaction 3
chebyshev_reaction('aRO2 (+ M) <=> aQOOHb (+ M)',
                   Tmin=180.0, Tmax=1500.0,
                   Pmin=(0.01, 'atm'), Pmax=(98.692, 'atm'),
                   coeffs=[[-1.05800e+01,  2.53900e+00,  3.17300e-02, -1.14600e-01, -1.06600e-02,  1.05600e-02,  2.74900e-03, -8.80700e-04],
                           [ 4.43800e+00,  2.89400e+00,  1.91000e-01, -1.08100e-01, -1.61500e-02,  9.74500e-03,  3.04700e-03, -1.35800e-03],
                           [-2.88800e+00,  1.80900e-01,  4.07800e-02,  6.91400e-02,  2.09300e-02, -5.34600e-03, -4.87400e-03, -4.43400e-04],
                           [-1.90400e+00, -6.15400e-01, -1.48200e-01,  7.46000e-02,  3.47600e-02, -4.05700e-03, -5.57400e-03, -5.87100e-05],
                           [-8.37800e-01, -3.62200e-01, -1.45200e-01,  1.03200e-02,  9.87200e-03, -3.10600e-04,  1.73500e-04,  9.11500e-04],
                           [-2.70700e-01, -9.51000e-02, -6.54700e-02, -1.49500e-02, -1.00100e-02, -9.19000e-04,  2.84700e-03,  1.13600e-03],
                           [-5.55000e-02,  1.12500e-02, -9.18600e-03, -9.18300e-03, -1.09700e-02, -1.20800e-03,  1.62300e-03,  2.09600e-04],
                           [ 5.72200e-03,  3.90300e-02,  1.74700e-02,  9.41600e-04, -5.58800e-03, -5.76000e-04,  1.20900e-04, -4.33400e-04],
                           [ 1.03900e-02,  3.08600e-02,  2.11600e-02,  5.71200e-03, -1.10100e-03,  1.75600e-04, -4.34000e-04, -4.21400e-04],
                           [ 2.46900e-03,  5.39000e-03,  1.31200e-02,  4.10600e-03,  1.25200e-03,  8.79500e-04, -3.25200e-04, -2.28900e-04]])

# Reaction 4
chebyshev_reaction('aadduct (+ M) <=> aQOOHb (+ M)',
                   Tmin=180.0, Tmax=1500.0,
                   Pmin=(0.01, 'atm'), Pmax=(98.692, 'atm'),
                   coeffs=[[-1.08900e+01,  2.06100e+00, -1.40700e-01, -1.02800e-01,  7.72700e-04,  6.10100e-03,  2.16100e-03, -1.83800e-04],
                           [ 2.55400e+00,  3.16400e+00,  3.73100e-01, -1.33100e-01, -1.76300e-02,  1.58100e-02,  1.56400e-03, -1.91900e-03],
                           [-2.99300e+00, -6.31000e-02,  5.02600e-02,  6.60400e-02,  1.92600e-02, -4.37900e-03, -3.68000e-03, -5.88000e-04],
                           [-1.83400e+00, -6.50100e-01, -1.45200e-01,  6.29900e-02,  3.53300e-02, -4.96400e-03, -5.85300e-03,  3.76900e-04],
                           [-7.88800e-01, -3.28500e-01, -1.34000e-01,  3.46800e-03,  1.28000e-02, -6.38200e-04, -4.84500e-04,  9.80500e-04],
                           [-2.67500e-01, -6.03200e-02, -5.67600e-02, -2.15400e-02, -8.54600e-03, -3.73000e-04,  2.87200e-03,  1.04000e-03],
                           [-6.43900e-02,  3.63500e-02,  1.48300e-04, -1.12900e-02, -1.09000e-02, -1.52300e-03,  1.90800e-03,  2.76300e-04],
                           [-6.51600e-03,  3.66300e-02,  2.12900e-02,  3.06200e-03, -4.79500e-03, -1.23100e-03,  2.18300e-04, -3.82900e-04],
                           [ 2.01500e-03,  1.79500e-02,  1.60100e-02,  6.99700e-03, -1.37700e-05, -1.17000e-04, -3.23700e-04, -4.59300e-04],
                           [-6.65100e-03,  5.14300e-04,  6.47200e-03,  3.47600e-03,  1.25700e-03,  9.58500e-04, -1.96500e-04, -2.93900e-04]])

# Reaction 5
chebyshev_reaction('O2 + aR (+ M) <=> aQOOHb (+ M)',
                   Tmin=180.0, Tmax=1500.0,
                   Pmin=(0.01, 'atm'), Pmax=(98.692, 'atm'),
                   coeffs=[[-1.70400e+00,  1.06700e+01, -8.46000e-01, -8.47900e-01, -1.13800e-02,  1.11200e-01,  2.19800e-02, -1.49400e-02],
                           [-1.09100e+00, -3.05700e+00,  1.45700e+00,  4.98700e-01, -9.56200e-02, -1.12400e-01, -7.29100e-03,  2.13800e-02],
                           [-1.47600e+00, -7.91800e-01,  7.95500e-02,  1.98600e-01,  3.80700e-02, -2.19700e-02, -1.16000e-02,  3.67100e-05],
                           [-7.43600e-01, -5.53300e-01, -1.04200e-01,  3.39900e-02,  2.74500e-02,  7.13000e-03, -5.21200e-03, -7.46900e-04],
                           [-2.77700e-01, -3.05900e-01, -5.39300e-02, -2.00500e-02, -2.04700e-03,  8.18300e-03,  2.62300e-03, -2.95500e-03],
                           [-7.51600e-02, -1.13300e-01,  6.82300e-03, -3.20300e-02, -4.77400e-03,  6.36700e-03, -2.59500e-03,  4.03600e-05],
                           [-3.99200e-03, -2.49300e-02,  3.85600e-02, -2.47800e-02,  4.11500e-03, -2.03300e-03, -1.73100e-03,  2.10100e-03],
                           [-1.99100e-02,  3.24800e-02,  6.49400e-03,  5.91900e-03,  1.69800e-03, -4.77200e-03,  2.48100e-03, -5.84800e-04],
                           [-1.21900e-02,  1.17200e-02, -3.95600e-03,  1.43900e-02, -4.67000e-03,  2.60000e-03,  2.25600e-04, -1.45300e-03],
                           [-7.32500e-03, -1.32400e-02,  8.30700e-04,  1.30400e-03, -6.67100e-04,  3.42500e-03, -1.56600e-03,  2.57200e-04]])
#  aQOOHb(+M) <=> aQOOH[O](+M)                         1.000e+00 0.000     0.000
#      TCHEB/ 180.000   1500.000 /
#      PCHEB/ 0.010     98.692   /
#      CHEB/ 10 8/
#      CHEB/ -2.054e+01   5.361e+00    -1.020e+00   1.129e-01    6.254e-02   /
#      CHEB/ -2.977e-02   1.155e-02    -2.813e-03   3.110e+00    1.260e+00   /
#      CHEB/ 8.312e-01    -3.388e-01   -6.103e-02   5.022e-02    -1.384e-02  /
#      CHEB/ 2.858e-03    -3.197e+00   -7.382e-02   3.241e-01    2.350e-02   /
#      CHEB/ -3.723e-03   -3.119e-03   -1.293e-03   -1.204e-03   -1.626e+00  /
#      CHEB/ -5.069e-01   1.546e-02    4.911e-02    4.073e-03    1.279e-03   /
#      CHEB/ 9.932e-04    -1.253e-03   -6.816e-01   -2.969e-01   -4.867e-02  /
#      CHEB/ 4.585e-03    -7.184e-03   1.013e-03    2.788e-03    3.651e-04   /
#      CHEB/ -2.844e-01   -7.257e-02   -2.392e-02   -1.284e-02   -1.194e-02  /
#      CHEB/ -1.630e-03   2.215e-03    4.696e-04    -1.536e-01   1.793e-02   /
#      CHEB/ 6.167e-03    -4.859e-03   -7.705e-03   -1.983e-03   1.243e-04   /
#      CHEB/ -3.646e-05   -3.194e-02   2.846e-02    1.298e-02    4.660e-03   /
#      CHEB/ -5.613e-04   -1.622e-03   -9.823e-04   -1.673e-04   -1.403e-02  /
#      CHEB/ 1.272e-02    1.019e-02    9.712e-03    3.174e-03    -6.939e-04  /
#      CHEB/ -4.475e-04   -2.656e-04   1.888e-02    -1.840e-03   -8.361e-04  /
#      CHEB/ 3.604e-03    2.920e-03    8.162e-04    -1.525e-04   1.513e-07   /

# Reaction 6
chebyshev_reaction('aQOOHg (+ M) <=> aQOOH[O] (+ M)',
                   Tmin=180.0, Tmax=1500.0,
                   Pmin=(0.01, 'atm'), Pmax=(98.692, 'atm'),
                   coeffs=[[-1.00500e+01,  2.63900e+00, -3.92300e-01,  8.96900e-02,  1.55000e-02,  3.38700e-03, -2.81800e-03, -8.90700e-04],
                           [-3.41800e+00,  1.29700e+00,  1.16700e-01, -1.32900e-01, -6.26600e-03, -2.01800e-03,  4.28200e-03,  7.78900e-04],
                           [-4.47000e+00,  1.50300e-02,  1.85500e-01,  1.07000e-02,  5.23000e-04, -1.84300e-03, -2.97500e-03,  4.89000e-04],
                           [-2.01600e+00, -3.54000e-01, -3.62200e-02,  2.32900e-02,  7.71900e-03,  2.80700e-03, -8.79500e-04, -6.56200e-04],
                           [-7.34100e-01, -1.19800e-01, -9.55300e-02, -1.61900e-02,  3.97400e-03,  3.67000e-03,  6.19200e-04, -3.59400e-04],
                           [-2.87900e-01,  6.96900e-02, -1.95400e-02, -2.81100e-02, -8.02800e-03,  1.86100e-03,  1.22900e-03,  1.47700e-04],
                           [-1.75300e-01,  6.99600e-02,  3.84200e-02, -1.55000e-03, -1.12200e-02, -2.80200e-03,  7.88300e-04,  4.36100e-04],
                           [-3.90200e-02, -3.05900e-03,  2.35400e-02,  1.65200e-02, -1.39700e-03, -4.13100e-03, -7.24000e-04,  3.31800e-04],
                           [-1.18300e-02, -2.41100e-02, -5.56500e-03,  9.45800e-03,  6.78400e-03, -2.86000e-04, -1.37200e-03, -2.77600e-04],
                           [ 1.80600e-02, -5.64600e-03, -1.50300e-02, -5.19800e-03,  3.54100e-03,  2.79200e-03, -6.32000e-05, -5.87200e-04]])

# Reaction 7
chebyshev_reaction('aRO2 (+ M) <=> aQOOH[O] (+ M)',
                   Tmin=180.0, Tmax=1500.0,
                   Pmin=(0.01, 'atm'), Pmax=(98.692, 'atm'),
                   coeffs=[[-1.39300e+01,  4.45800e+00, -5.20300e-01,  1.65400e-02,  7.85700e-02, -1.47600e-02, -8.08700e-03,  3.86800e-03],
                           [ 5.59700e+00, -5.24100e-02,  3.87900e-01, -1.39000e-01, -7.48800e-02,  3.18500e-02,  5.79400e-03, -5.74800e-03],
                           [-4.09400e+00,  7.31100e-02,  1.52500e-01,  4.47000e-02, -2.39300e-02, -8.28300e-03,  5.12400e-03,  4.11300e-04],
                           [-1.99700e+00, -1.29300e-01,  3.28000e-02,  3.45100e-02,  1.52300e-03, -6.01000e-03,  7.98200e-05,  1.16300e-03],
                           [-8.72900e-01, -1.42400e-01, -2.31400e-02,  1.20200e-02,  5.64000e-03, -1.22500e-03, -1.04500e-03,  2.45400e-04],
                           [-3.73800e-01, -8.04200e-02, -3.44300e-02, -2.41400e-03,  2.84500e-03,  6.30100e-04, -2.78200e-04, -7.33300e-05],
                           [-1.74800e-01, -1.45700e-02, -1.93900e-02, -7.16500e-03, -5.51400e-04,  5.41200e-04,  2.10000e-04, -3.46000e-06],
                           [-1.40500e-02,  2.25200e-02, -3.16600e-03, -5.20800e-03, -2.11000e-03, -2.04700e-04,  1.35700e-04,  8.91400e-05],
                           [ 9.69600e-03,  3.29100e-02,  1.04600e-02,  1.02500e-03, -1.04600e-03, -7.56500e-04, -1.22800e-04,  6.34600e-05],
                           [ 3.15900e-02,  1.52800e-02,  8.22000e-03,  2.48000e-03, -2.35500e-06, -4.16100e-04, -2.28200e-04, -7.56000e-06]])

# Reaction 8
chebyshev_reaction('aadduct (+ M) <=> aQOOH[O] (+ M)',
                   Tmin=180.0, Tmax=1500.0,
                   Pmin=(0.01, 'atm'), Pmax=(98.692, 'atm'),
                   coeffs=[[-1.41700e+01,  4.14000e+00, -6.82600e-01,  2.70700e-02,  8.49600e-02, -2.34000e-02, -9.75800e-03,  5.24900e-03],
                           [ 3.50900e+00,  5.95200e-02,  4.77800e-01, -1.53700e-01, -7.55900e-02,  4.15200e-02,  6.58600e-03, -7.21700e-03],
                           [-4.13600e+00,  1.51900e-02,  1.74400e-01,  5.59600e-02, -2.47400e-02, -7.68800e-03,  5.98400e-03,  5.25500e-06],
                           [-1.97300e+00, -1.50300e-01,  1.43500e-02,  3.47000e-02,  1.17200e-03, -7.12400e-03,  2.09000e-04,  1.57700e-03],
                           [-8.50900e-01, -9.97300e-02, -3.63200e-02,  4.62200e-03,  5.28200e-03, -1.22600e-03, -1.31200e-03,  3.14700e-04],
                           [-3.74600e-01, -2.18100e-02, -3.07900e-02, -7.05500e-03,  1.73700e-03,  9.36500e-04, -4.04900e-04, -2.47600e-04],
                           [-1.89300e-01,  1.82000e-02, -1.08500e-02, -6.18800e-03, -1.02400e-03,  5.22500e-04,  2.56500e-04, -7.84400e-05],
                           [-2.84100e-02,  2.21400e-02,  3.56100e-04, -2.38500e-03, -1.38400e-03, -2.75400e-04,  1.52500e-04,  1.13400e-04],
                           [ 2.92500e-04,  1.96400e-02,  7.48500e-03,  1.87500e-03, -1.65700e-04, -6.30400e-04, -1.28800e-04,  9.97800e-05],
                           [ 2.42900e-02,  1.02700e-02,  3.22800e-03,  1.33800e-03,  1.63400e-04, -2.31400e-04, -1.93700e-04, -2.36700e-06]])

# Reaction 9
chebyshev_reaction('O2 + aR (+ M) <=> aQOOH[O] (+ M)',
                   Tmin=180.0, Tmax=1500.0,
                   Pmin=(0.01, 'atm'), Pmax=(98.692, 'atm'),
                   coeffs=[[-2.21900e+00,  4.58100e+00,  9.75000e-02, -3.72500e-01, -3.31100e-02,  7.46600e-02,  1.73900e-02, -1.28600e-02],
                           [ 2.89500e-01, -2.96700e+00,  2.31600e-01,  5.14100e-01, -4.18500e-02, -1.16800e-01, -6.63600e-03,  2.29500e-02],
                           [-1.69500e+00,  3.23700e-01, -3.24500e-01, -1.16200e-02,  1.35100e-01,  1.78900e-02, -2.97900e-02, -7.00600e-03],
                           [-9.12500e-01,  1.09600e-01, -1.21600e-02, -1.17300e-01, -6.49700e-03,  4.95100e-02,  8.54500e-03, -1.22300e-02],
                           [-3.79400e-01, -1.33300e-02,  2.52800e-02, -1.96100e-02, -5.02400e-02, -2.66500e-03,  2.14800e-02,  3.80800e-03],
                           [-1.89100e-01, -7.82000e-03, -3.83100e-03,  8.45500e-03, -9.96400e-03, -2.16200e-02, -8.34300e-04,  1.00900e-02],
                           [-1.32400e-01, -3.38800e-03,  6.58300e-04,  5.28200e-03,  4.88000e-03, -6.01500e-03, -9.89200e-03,  3.50200e-04],
                           [-2.09100e-02,  3.71000e-03,  2.50800e-03,  1.37200e-03,  4.02000e-03,  2.83000e-03, -3.42300e-03, -4.87300e-03],
                           [-1.61000e-02,  1.32400e-02,  7.44200e-03,  3.47000e-03,  1.77800e-03,  2.90800e-03,  1.49100e-03, -2.18100e-03],
                           [ 2.71000e-02,  1.12300e-03,  2.24300e-03,  2.01200e-03,  1.17900e-03,  7.07100e-04,  1.59400e-03,  8.80400e-04]])
#  aQOOHb(+M) <=> aQOOHg(+M)                           1.000e+00 0.000     0.000
#      TCHEB/ 180.000   1500.000 /
#      PCHEB/ 0.010     98.692   /
#      CHEB/ 10 8/
#      CHEB/ -1.532e+01   3.397e+00    -4.759e-01   -1.511e-01   1.696e-02   /
#      CHEB/ 1.784e-02    -1.246e-03   -2.289e-03   1.354e+00    3.122e+00   /
#      CHEB/ 4.425e-01    -8.568e-02   -2.144e-02   2.498e-04    3.110e-04   /
#      CHEB/ 3.023e-04    -3.609e+00   -8.582e-01   1.921e-01    1.772e-01   /
#      CHEB/ 3.310e-03    -1.778e-02   -2.864e-03   2.008e-03    -1.796e+00  /
#      CHEB/ -1.008e+00   -1.526e-01   7.939e-02    2.010e-02    -1.621e-03  /
#      CHEB/ 6.676e-04    7.200e-06    -5.938e-01   -3.509e-01   -1.726e-01  /
#      CHEB/ -3.404e-02   8.688e-03    7.162e-03    1.866e-03    -7.330e-04  /
#      CHEB/ -1.616e-01   3.746e-02    -3.390e-02   -5.082e-02   -9.512e-03  /
#      CHEB/ 4.876e-03    1.144e-03    -5.005e-04   -4.518e-02   9.574e-02   /
#      CHEB/ 5.629e-02    -1.093e-02   -1.336e-02   -2.197e-03   6.170e-04   /
#      CHEB/ 2.346e-04    -2.186e-02   1.908e-02    4.296e-02    1.751e-02   /
#      CHEB/ -1.437e-03   -4.461e-03   -8.475e-04   5.405e-04    -1.216e-02  /
#      CHEB/ -2.617e-02   -3.528e-03   1.079e-02    7.842e-03    -3.512e-04  /
#      CHEB/ -1.443e-03   -2.836e-05   -2.125e-02   -1.300e-02   -1.987e-02  /
#      CHEB/ -5.066e-03   4.508e-03    2.880e-03    -2.973e-05   -4.823e-04  /
#  aQOOH[O](+M) <=> aQOOHg(+M)                         1.000e+00 0.000     0.000
#      TCHEB/ 180.000   1500.000 /
#      PCHEB/ 0.010     98.692   /
#      CHEB/ 10 8/
#      CHEB/ -7.174e+00   2.639e+00    -3.923e-01   8.969e-02    1.550e-02   /
#      CHEB/ 3.387e-03    -2.818e-03   -8.907e-04   -5.523e+00   1.297e+00   /
#      CHEB/ 1.167e-01    -1.329e-01   -6.266e-03   -2.018e-03   4.282e-03   /
#      CHEB/ 7.789e-04    -4.325e+00   1.503e-02    1.855e-01    1.070e-02   /
#      CHEB/ 5.230e-04    -1.843e-03   -2.975e-03   4.890e-04    -1.968e+00  /
#      CHEB/ -3.540e-01   -3.622e-02   2.329e-02    7.719e-03    2.807e-03   /
#      CHEB/ -8.795e-04   -6.562e-04   -7.213e-01   -1.198e-01   -9.553e-02  /
#      CHEB/ -1.619e-02   3.974e-03    3.670e-03    6.192e-04    -3.594e-04  /