units(length='cm', time='s', quantity='mol', act_energy='kcal/mol')

ideal_gas(name='gas',
          elements="H D T C Ci O Oi N Ne Ar He Si S F Cl Br I X",
          species="""propene3ol       OH               disub_c4ether
                     H2O              disub_epoxy      gQOOHa
                     propene1ol       gQOOHb           ipropylOOH
                     galdoxy          galkene          CH2O
                     O2               gRO2             gQOOHg
                     gR               galdol           monosub_c4ether
                     HO2              gQOOH[O]""",
          reactions='all',
          initial_state=state(temperature=300.0, pressure=OneAtm))

#-------------------------------------------------------------------------------
# Element data
#-------------------------------------------------------------------------------

element(symbol='Ci', atomic_mass=13.003)
element(symbol='D', atomic_mass=2.014)
element(symbol='Oi', atomic_mass=18.0)
element(symbol='T', atomic_mass=3.016)
element(symbol='X', atomic_mass=195.083)
#-------------------------------------------------------------------------------
# Species data
#-------------------------------------------------------------------------------

species(name='propene3ol',
        atoms='C:3 H:6 O:1',
        thermo=(NASA([10.00, 444.81],
                     [ 3.92769709E+00,  4.89977303E-03,  1.13094874E-04,
                      -2.59008187E-07,  1.86205760E-10, -1.51025169E+04,
                       9.90805416E+00]),
                NASA([444.81, 3000.00],
                     [ 2.61720343E+00,  3.01777872E-02, -1.76511625E-05,
                       5.14864061E-09, -5.91153761E-13, -1.51194174E+04,
                       1.36683107E+01])))

species(name='OH',
        atoms='H:1 O:1',
        thermo=(NASA([10.00, 984.14],
                     [ 3.49686242E+00,  1.83973160E-04, -9.97634499E-07,
                       1.56942783E-09, -6.10128175E-13,  3.41673934E+03,
                       1.48093120E+00]),
                NASA([984.14, 3000.00],
                     [ 3.45221464E+00, -2.95124034E-04,  7.39418622E-07,
                      -2.89309866E-10,  3.53041498E-14,  3.45751599E+03,
                       1.85813897E+00])))

species(name='disub_c4ether',
        atoms='C:4 H:8 O:2',
        thermo=(NASA([10.00, 413.50],
                     [ 3.78241323E+00,  1.89501763E-02,  8.65302396E-05,
                      -1.80580575E-07,  1.13656264E-10, -4.08444967E+04,
                       1.09982450E+01]),
                NASA([413.50, 3000.00],
                     [ 4.29420885E-01,  5.13851903E-02, -3.11292293E-05,
                       9.11498284E-09, -1.03192718E-12, -4.05672023E+04,
                       2.42134976E+01])))

species(name='H2O',
        atoms='H:2 O:1',
        thermo=(NASA([10.00, 773.84],
                     [ 4.00473541E+00, -2.39729134E-04,  8.11862955E-07,
                       1.47891862E-09, -1.19783539E-12, -3.03533807E+04,
                      -9.96254147E-02]),
                NASA([773.84, 3000.00],
                     [ 3.52133374E+00,  1.05377009E-03,  6.40722099E-07,
                      -3.86240235E-10,  5.49243294E-14, -3.02424794E+04,
                       2.34173094E+00])))

species(name='disub_epoxy',
        atoms='C:4 H:8 O:2',
        thermo=(NASA([10.00, 549.41],
                     [ 3.89863211E+00,  5.97532637E-03,  1.66685676E-04,
                      -3.10743768E-07,  1.78330192E-10, -3.66942455E+04,
                       1.13847308E+01]),
                NASA([549.41, 3000.00],
                     [-6.40277648E-01,  6.05960003E-02, -4.13427220E-05,
                       1.31555461E-08, -1.57685017E-12, -3.65211286E+04,
                       2.76005436E+01])))

species(name='gQOOHa',
        atoms='C:4 H:9 O:3',
        thermo=(NASA([10.00, 160.74],
                     [ 3.80808147E+00,  2.31043884E-02,  5.26945984E-04,
                      -3.11500696E-06,  6.03881958E-09, -2.32999620E+04,
                       1.17645316E+01]),
                NASA([160.74, 3000.00],
                     [ 2.90630300E+00,  6.50241173E-02, -4.60073244E-05,
                       1.51330930E-08, -1.87074267E-12, -2.32961374E+04,
                       1.36838819E+01])))

species(name='propene1ol',
        atoms='C:3 H:6 O:1',
        thermo=(NASA([10.00, 459.42],
                     [ 3.91245344E+00,  5.85800161E-03,  1.15412006E-04,
                      -2.68014417E-07,  1.91800131E-10, -1.86829806E+04,
                       8.14807684E+00]),
                NASA([459.42, 3000.00],
                     [ 3.14049093E+00,  2.95550898E-02, -1.73843684E-05,
                       5.11506211E-09, -5.92966137E-13, -1.87912031E+04,
                       9.32215170E+00])))

species(name='gQOOHb',
        atoms='C:4 H:9 O:3',
        thermo=(NASA([10.00, 1018.67],
                     [ 3.99028351E+00,  4.29665712E-02,  2.28338778E-05,
                      -5.67914439E-08,  2.29383258E-11, -2.41804400E+04,
                       1.20326731E+01]),
                NASA([1018.67, 3000.00],
                     [ 1.38304153E+01,  3.88527019E-02, -2.19473905E-05,
                       5.78719895E-09, -5.85097740E-13, -2.79765248E+04,
                      -4.44147388E+01])))

species(name='ipropylOOH',
        atoms='C:3 H:7 O:2',
        thermo=(NASA([10.00, 405.01],
                     [ 3.30075623E+00,  7.58672756E-02, -3.35754269E-04,
                       8.05972164E-07, -6.68864582E-10, -5.33744370E+02,
                       1.43372849E+01]),
                NASA([405.01, 3000.00],
                     [ 2.51742509E+00,  3.72760950E-02, -2.12450220E-05,
                       5.83593926E-09, -6.22110649E-13, -9.03367633E+01,
                       2.20991392E+01])))

species(name='galdoxy',
        atoms='C:4 H:7 O:2',
        thermo=(NASA([10.00, 209.62],
                     [ 3.82641108E+00,  1.84758886E-02,  3.43073800E-04,
                      -1.82817005E-06,  2.98516720E-09, -1.82843995E+04,
                       1.17972706E+01]),
                NASA([209.62, 3000.00],
                     [ 4.22049016E+00,  4.03370149E-02, -2.36129482E-05,
                       6.72979114E-09, -7.47862493E-13, -1.83654693E+04,
                       8.97211724E+00])))

species(name='galkene',
        atoms='C:4 H:8 O:1',
        thermo=(NASA([10.00, 383.47],
                     [ 3.84035604E+00,  1.20378740E-02,  1.87486319E-04,
                      -5.44759148E-07,  4.80711015E-10, -2.17303996E+04,
                       1.02570291E+01]),
                NASA([383.47, 3000.00],
                     [ 4.00413385E+00,  3.79025144E-02, -2.15435710E-05,
                       6.15213311E-09, -6.97446345E-13, -2.19456889E+04,
                       6.98052628E+00])))

species(name='CH2O',
        atoms='C:1 H:2 O:1',
        thermo=(NASA([10.00, 601.31],
                     [ 4.03190845E+00, -1.93233367E-03,  8.89743345E-06,
                       2.98105926E-09, -7.90813886E-12, -1.42276270E+04,
                       3.47574660E+00]),
                NASA([601.31, 3000.00],
                     [ 1.40134195E+00,  9.48858016E-03, -4.43088317E-06,
                       9.48452194E-10, -7.43790219E-14, -1.38013869E+04,
                       1.57423780E+01])))

species(name='O2',
        atoms='O:2',
        thermo=(NASA([10.00, 605.96],
                     [ 3.50743498E+00, -4.43860349E-04,  1.45938058E-06,
                       1.61509333E-09, -2.32050052E-12, -9.24756224E+02,
                       4.72183634E+00]),
                NASA([605.96, 3000.00],
                     [ 2.87462882E+00,  2.17840991E-03, -1.18262921E-06,
                       2.86910493E-10, -2.53297146E-14, -8.19517838E+02,
                       7.69331810E+00])))

species(name='gRO2',
        atoms='C:4 H:9 O:3',
        thermo=(NASA([10.00, 177.33],
                     [ 3.70632176E+00,  3.49733664E-02,  4.64036392E-04,
                      -3.18637835E-06,  6.38178607E-09, -2.89402222E+04,
                       1.24459269E+01]),
                NASA([177.33, 3000.00],
                     [ 4.82062697E+00,  5.17179689E-02, -3.18386818E-05,
                       9.52247045E-09, -1.10180288E-12, -2.90455928E+04,
                       7.14082953E+00])))

species(name='gQOOHg',
        atoms='C:4 H:9 O:3',
        thermo=(NASA([10.00, 475.03],
                     [ 3.42273720E+00,  4.98344215E-02,  6.47820920E-05,
                      -2.49842966E-07,  1.98636537E-10, -2.21721467E+04,
                       1.41578583E+01]),
                NASA([475.03, 3000.00],
                     [ 5.94049074E+00,  5.53778585E-02, -3.71708255E-05,
                       1.17540477E-08, -1.40812095E-12, -2.27131010E+04,
                       7.09201218E-01])))

species(name='gR',
        atoms='C:4 H:9 O:1',
        thermo=(NASA([10.00, 638.24],
                     [ 3.37074633E+00,  5.17529751E-02, -6.54872940E-05,
                       6.88084237E-08, -3.21569794E-11, -1.23835444E+04,
                       1.14339669E+01]),
                NASA([638.24, 3000.00],
                     [ 3.99410860E+00,  4.06314915E-02, -2.23932510E-05,
                       6.08356263E-09, -6.49884708E-13, -1.23161697E+04,
                       9.85769960E+00])))

species(name='galdol',
        atoms='C:4 H:8 O:2',
        thermo=(NASA([10.00, 506.68],
                     [ 3.85380874E+00,  9.21272695E-03,  1.86712348E-04,
                      -3.96417049E-07,  2.55528268E-10, -4.75520250E+04,
                       1.24312743E+01]),
                NASA([506.68, 3000.00],
                     [ 1.49710213E+00,  5.65979142E-02, -3.87709084E-05,
                       1.23682052E-08, -1.48287964E-12, -4.76826344E+04,
                       1.85531759E+01])))

species(name='monosub_c4ether',
        atoms='C:4 H:8 O:2',
        thermo=(NASA([10.00, 380.36],
                     [ 3.47743996E+00,  6.08051311E-02, -2.78518945E-04,
                       8.23182713E-07, -7.87158031E-10, -3.09945174E+04,
                       1.06415154E+01]),
                NASA([380.36, 3000.00],
                     [-1.09346901E+00,  5.35985968E-02, -3.21081420E-05,
                       9.20818293E-09, -1.01830294E-12, -3.02469573E+04,
                       3.35312368E+01])))

species(name='HO2',
        atoms='H:1 O:2',
        thermo=(NASA([10.00, 891.11],
                     [ 4.02887004E+00, -1.75769289E-03,  1.08726004E-05,
                      -1.13812972E-08,  3.90113097E-12,  4.95165001E+02,
                       4.69302008E+00]),
                NASA([891.11, 3000.00],
                     [ 3.06571044E+00,  4.28505005E-03, -2.19325920E-06,
                       5.58882699E-10, -5.61246669E-14,  5.98557610E+02,
                       8.84564156E+00])))

species(name='gQOOH[O]',
        atoms='C:4 H:9 O:3',
        thermo=(NASA([10.00, 535.23],
                     [ 3.83107445E+00,  1.02302002E-02,  2.29377261E-04,
                      -4.59095575E-07,  2.77765018E-10, -1.69474023E+04,
                       1.41034859E+01]),
                NASA([535.23, 3000.00],
                     [-4.19283096E-01,  7.69784620E-02, -5.57279000E-05,
                       1.81378295E-08, -2.18295635E-12, -1.69935157E+04,
                       2.72711816E+01])))

#-------------------------------------------------------------------------------
# Reaction data
#-------------------------------------------------------------------------------

# Reaction 1
chebyshev_reaction('gQOOH[O] (+ M) <=> gRO2 (+ M)',
                   Tmin=180.0, Tmax=1500.0,
                   Pmin=(0.01, 'atm'), Pmax=(98.692, 'atm'),
                   coeffs=[[ 8.83200e+00,  1.39300e+00, -2.52800e-01, -9.23300e-03,  1.54600e-02,  9.18300e-04, -1.67600e-03, -2.08900e-04],
                           [-1.03800e+00,  8.38700e-01,  1.07700e-01, -3.43100e-02, -1.43100e-02,  4.33200e-03,  1.90500e-03, -6.35700e-04],
                           [-9.33300e-01,  3.56800e-01,  6.58200e-02,  1.35700e-02, -6.86400e-03, -3.91800e-03,  6.64700e-04,  7.57400e-04],
                           [-5.45800e-01,  1.54800e-01,  1.44400e-02,  1.36200e-02,  1.83000e-03, -2.77700e-03, -7.30500e-04,  4.49500e-04],
                           [-2.78300e-01,  1.17900e-01, -1.27700e-02, -3.56900e-03,  3.69100e-03,  9.14000e-04, -5.53800e-04, -2.13400e-04],
                           [-9.45300e-02,  5.42000e-02, -1.10200e-02, -6.06200e-03,  5.52100e-04,  1.12300e-03,  2.33100e-04, -1.41700e-04],
                           [-2.83200e-02,  3.91000e-02, -9.48800e-03, -5.47400e-03, -3.12500e-04,  6.36300e-04,  2.37900e-04, -3.49900e-05],
                           [ 5.31100e-03,  1.02800e-02, -2.06700e-03, -1.64700e-03, -8.03700e-04, -1.29700e-04,  1.52500e-04,  6.95300e-05],
                           [-2.65500e-03,  1.46700e-02, -8.41600e-04, -1.46600e-03, -1.49700e-04,  4.19800e-05, -4.69900e-05, -1.52700e-05],
                           [ 5.32600e-03, -2.98300e-03,  1.69700e-03,  1.17100e-03, -3.48800e-04, -2.64700e-04,  2.11100e-05,  2.68600e-05]])

# Reaction 2
chebyshev_reaction('gQOOHa (+ M) <=> gRO2 (+ M)',
                   Tmin=180.0, Tmax=1500.0,
                   Pmin=(0.01, 'atm'), Pmax=(98.692, 'atm'),
                   coeffs=[[ 5.74800e+00,  6.58400e-01, -1.48900e-01, -6.27800e-03,  5.08800e-03,  6.90600e-04, -9.87800e-05, -6.83400e-05],
                           [ 1.85300e+00,  1.05400e+00, -2.00300e-01, -2.53300e-02,  6.96700e-03,  2.51600e-03, -1.08700e-04, -2.04500e-04],
                           [ 1.60900e-02,  5.46900e-01, -3.46900e-02, -3.51300e-02, -1.73900e-03,  3.72400e-03,  4.57300e-04, -2.90600e-04],
                           [-2.87600e-01,  1.98200e-01,  3.98200e-02, -2.02500e-02, -8.34900e-03,  1.96400e-03,  1.25400e-03, -1.15000e-04],
                           [-1.75400e-01,  7.97200e-02,  2.73000e-02, -2.59300e-04, -7.20500e-03, -1.18000e-03,  1.22300e-03,  2.86400e-04],
                           [-8.18800e-02,  5.60000e-02,  3.04400e-03,  6.49400e-03, -2.23300e-03, -2.38500e-03,  3.16800e-04,  4.83700e-04],
                           [-4.44600e-02,  3.60500e-02, -2.25600e-03,  3.69300e-03,  7.77300e-04, -1.42400e-03, -4.44600e-04,  2.97400e-04],
                           [-2.39000e-02,  1.36200e-02,  1.26500e-03,  4.58400e-04,  1.06000e-03, -2.05600e-04, -5.25800e-04,  4.90100e-06],
                           [-9.66300e-03,  1.41000e-03,  2.57800e-03, -3.83500e-04,  5.07100e-04,  2.43800e-04, -2.46800e-04, -1.24900e-04],
                           [-2.30300e-03, -1.94600e-03,  1.55200e-03, -1.31200e-04,  1.35800e-04,  2.08000e-04, -2.55800e-05, -1.01900e-04]])

# Reaction 3
chebyshev_reaction('gQOOHg (+ M) <=> gRO2 (+ M)',
                   Tmin=180.0, Tmax=1500.0,
                   Pmin=(0.01, 'atm'), Pmax=(98.692, 'atm'),
                   coeffs=[[ 7.96600e+00,  5.18900e-01, -1.67500e-01,  1.71500e-02,  4.76700e-03, -5.21900e-04, -7.24500e-04,  6.26700e-05],
                           [ 7.83400e-01,  8.07300e-01, -2.18800e-01, -2.97900e-03,  1.62000e-02, -1.34200e-03, -1.45700e-03,  7.18400e-05],
                           [-1.59900e-01,  4.52200e-01, -6.88000e-02, -3.11900e-02,  1.17000e-02,  2.26100e-03, -1.78900e-03, -1.58300e-04],
                           [-2.33900e-01,  2.19500e-01, -6.14400e-04, -2.51900e-02,  1.03600e-03,  4.17500e-03, -8.29400e-04, -5.73300e-04],
                           [-1.37500e-01,  1.12400e-01,  8.95900e-03, -9.57900e-03, -4.26900e-03,  2.62100e-03,  4.75100e-04, -6.02000e-04],
                           [-7.21100e-02,  6.18800e-02,  4.94800e-03, -1.08600e-03, -3.69200e-03,  4.05100e-04,  8.81200e-04, -2.46300e-04],
                           [-3.95700e-02,  3.18300e-02,  2.81600e-03,  9.32500e-04, -1.61100e-03, -6.07200e-04,  5.46800e-04,  7.21300e-05],
                           [-2.04600e-02,  1.29800e-02,  2.39200e-03,  7.48400e-04, -2.87100e-04, -6.17000e-04,  1.25100e-04,  1.63000e-04],
                           [-8.49300e-03,  2.80000e-03,  1.93500e-03,  4.26200e-04,  1.61100e-04, -3.17900e-04, -8.72100e-05,  1.10100e-04],
                           [-2.20100e-03, -1.30600e-03,  1.14500e-03,  3.19900e-04,  1.80100e-04, -7.84000e-05, -1.17600e-04,  3.42000e-05]])

# Reaction 4
chebyshev_reaction('gQOOHb (+ M) <=> gRO2 (+ M)',
                   Tmin=180.0, Tmax=1500.0,
                   Pmin=(0.01, 'atm'), Pmax=(98.692, 'atm'),
                   coeffs=[[ 4.09000e+00,  5.61700e-01, -7.20500e-02, -9.71400e-03,  5.07000e-04,  1.52800e-04,  6.23900e-05,  1.75300e-05],
                           [ 2.40300e+00,  9.98900e-01, -1.14900e-01, -1.94600e-02,  1.46400e-04,  3.42500e-04,  1.36900e-04,  3.30700e-05],
                           [ 3.61600e-01,  6.94500e-01, -4.89300e-02, -1.77200e-02, -1.84700e-03,  3.25800e-04,  1.62000e-04,  3.22700e-05],
                           [-2.87600e-01,  3.62300e-01,  9.67700e-03, -1.17500e-02, -3.49700e-03,  5.36800e-05,  1.64400e-04,  4.01900e-05],
                           [-2.87700e-01,  1.26900e-01,  3.24300e-02, -3.01600e-03, -3.49800e-03, -4.25500e-04,  9.95500e-05,  5.25700e-05],
                           [-1.39200e-01,  1.93300e-02,  2.37900e-02,  3.67800e-03, -1.80500e-03, -7.68200e-04, -3.57600e-05,  5.12700e-05],
                           [-4.10000e-02, -3.51700e-03,  6.18800e-03,  5.18400e-03,  3.05800e-04, -6.73700e-04, -1.69500e-04,  2.22100e-05],
                           [-8.59300e-03,  1.73600e-03, -3.81900e-03,  2.79000e-03,  1.41400e-03, -2.19000e-04, -2.04200e-04, -2.35600e-05],
                           [-4.45900e-03,  4.98900e-03, -4.46700e-03,  2.38100e-05,  1.17800e-03,  2.16600e-04, -1.15400e-04, -5.38700e-05],
                           [-3.72100e-03,  2.70100e-03, -1.71200e-03, -1.00800e-03,  3.44100e-04,  3.39900e-04,  1.74300e-05, -4.60200e-05]])

# Reaction 5
chebyshev_reaction('O2 + gR (+ M) <=> gRO2 (+ M)',
                   Tmin=180.0, Tmax=1500.0,
                   Pmin=(0.01, 'atm'), Pmax=(98.692, 'atm'),
                   coeffs=[[ 1.27200e+01,  3.31300e-01, -7.19600e-02,  1.76800e-03,  2.95800e-04,  2.26200e-04, -5.94800e-06,  6.00900e-06],
                           [-1.06600e+00,  5.49800e-01, -1.01200e-01, -5.26900e-03,  1.61500e-03,  2.59100e-04,  7.49200e-05, -7.63200e-06],
                           [-4.93200e-01,  3.35600e-01, -3.23600e-02, -1.34900e-02,  9.38600e-04,  4.09500e-04,  8.64000e-05,  1.03600e-05],
                           [-2.44100e-01,  1.68100e-01,  4.86000e-03, -1.08000e-02, -1.10800e-03,  4.38900e-04,  1.19000e-04,  1.94300e-05],
                           [-1.27100e-01,  8.11100e-02,  1.07800e-02, -4.45300e-03, -1.76600e-03,  7.38100e-05,  1.29200e-04,  2.97200e-05],
                           [-6.80500e-02,  3.99700e-02,  7.37100e-03, -9.53800e-04, -1.06900e-03, -2.02800e-04,  5.31300e-05,  3.45200e-05],
                           [-3.29700e-02,  1.52000e-02,  5.24700e-03,  5.20700e-07, -3.82600e-04, -1.91500e-04, -2.38200e-05,  1.92200e-05],
                           [-1.07000e-02, -9.19500e-04,  4.20700e-03,  3.79000e-04, -1.34200e-04, -9.85100e-05, -3.90100e-05,  2.69900e-07],
                           [ 1.27300e-03, -8.34500e-03,  2.77900e-03,  6.92700e-04, -4.63900e-05, -6.00600e-05, -2.48400e-05, -5.52300e-06],
                           [ 5.20400e-03, -8.73500e-03,  1.19500e-03,  7.12700e-04,  4.39800e-05, -4.44700e-05, -1.74900e-05, -3.44000e-06]])
#  gRO2(+M) <=> gQOOH[O](+M)                           1.000e+00 0.000     0.000
#      TCHEB/ 180.000   1500.000 /
#      PCHEB/ 0.010     98.692   /
#      CHEB/ 10 8/
#      CHEB/ -7.858e+00   1.393e+00    -2.528e-01   -9.233e-03   1.546e-02   /
#      CHEB/ 9.183e-04    -1.676e-03   -2.089e-04   1.143e+01    8.387e-01   /
#      CHEB/ 1.077e-01    -3.431e-02   -1.431e-02   4.332e-03    1.905e-03   /
#      CHEB/ -6.357e-04   -7.602e-01   3.568e-01    6.582e-02    1.357e-02   /
#      CHEB/ -6.864e-03   -3.918e-03   6.647e-04    7.574e-04    -4.210e-01  /
#      CHEB/ 1.548e-01    1.444e-02    1.362e-02    1.830e-03    -2.777e-03  /
#      CHEB/ -7.305e-04   4.495e-04    -2.247e-01   1.179e-01    -1.277e-02  /
#      CHEB/ -3.569e-03   3.691e-03    9.140e-04    -5.538e-04   -2.134e-04  /
#      CHEB/ -7.548e-02   5.420e-02    -1.102e-02   -6.062e-03   5.521e-04   /
#      CHEB/ 1.123e-03    2.331e-04    -1.417e-04   -2.210e-02   3.910e-02   /
#      CHEB/ -9.488e-03   -5.474e-03   -3.125e-04   6.363e-04    2.379e-04   /
#      CHEB/ -3.499e-05   7.229e-03    1.028e-02    -2.067e-03   -1.647e-03  /
#      CHEB/ -8.037e-04   -1.297e-04   1.525e-04    6.953e-05    -2.193e-03  /
#      CHEB/ 1.467e-02    -8.416e-04   -1.466e-03   -1.497e-04   4.198e-05   /
#      CHEB/ -4.699e-05   -1.527e-05   5.297e-03    -2.983e-03   1.697e-03   /
#      CHEB/ 1.171e-03    -3.488e-04   -2.647e-04   2.111e-05    2.686e-05   /

# Reaction 6
chebyshev_reaction('gQOOHa (+ M) <=> gQOOH[O] (+ M)',
                   Tmin=180.0, Tmax=1500.0,
                   Pmin=(0.01, 'atm'), Pmax=(98.692, 'atm'),
                   coeffs=[[-5.36100e+00,  4.98200e-01, -5.14700e-01,  2.38900e-03,  2.44500e-02, -1.49200e-03, -1.57000e-03, -2.50400e-06],
                           [ 6.78200e+00,  1.53300e+00,  1.20500e-01, -8.28700e-02, -1.48200e-02,  8.60300e-03,  8.73100e-04, -6.00500e-04],
                           [-7.01000e-01,  6.68000e-01,  8.10900e-02, -8.18900e-03, -1.27800e-02, -1.08600e-03,  1.64400e-03,  3.02800e-04],
                           [-3.94600e-01,  2.27400e-01,  2.87300e-02,  5.83300e-03, -6.78500e-03, -1.37400e-03,  1.40600e-03,  1.24300e-04],
                           [-1.01300e-01,  1.35800e-01, -1.00600e-02, -4.52100e-03, -8.39200e-04, -5.16000e-04,  5.95600e-04,  3.13300e-04],
                           [ 3.21200e-02,  5.42500e-02, -8.01800e-03, -2.03900e-03, -2.46900e-04, -1.07700e-03, -2.17400e-04,  4.32000e-04],
                           [ 9.99900e-03,  3.10900e-02, -9.71400e-04, -1.87900e-04,  4.84700e-05, -6.50100e-04, -5.93400e-04,  8.62700e-05],
                           [-3.20900e-03, -1.04700e-02,  7.35000e-03,  3.87600e-03, -5.82700e-04, -5.22500e-04, -3.13800e-04, -1.05200e-04],
                           [-3.24000e-02,  4.83300e-03,  2.70600e-03,  1.15400e-03,  5.49900e-04,  2.76900e-05, -1.65700e-04, -1.31400e-04],
                           [-1.62100e-02, -1.24900e-02,  2.58200e-03,  1.83000e-03,  2.07000e-04, -2.14200e-05, -3.55900e-05, -3.18000e-05]])

# Reaction 7
chebyshev_reaction('gQOOHg (+ M) <=> gQOOH[O] (+ M)',
                   Tmin=180.0, Tmax=1500.0,
                   Pmin=(0.01, 'atm'), Pmax=(98.692, 'atm'),
                   coeffs=[[-3.03200e+00,  1.84100e-01, -4.85800e-01,  2.55300e-02,  1.82500e-02, -1.17200e-03, -1.13800e-03, -5.54100e-04],
                           [ 5.44600e+00,  1.44600e+00,  1.97900e-02, -5.77100e-02,  5.66400e-03,  1.46900e-03, -1.00100e-03,  6.09900e-04],
                           [-6.54700e-01,  6.02300e-01,  4.57600e-02, -1.30600e-02, -1.88200e-04,  1.70800e-03, -1.80300e-03, -8.90500e-05],
                           [-3.74000e-01,  2.54500e-01,  1.21800e-03, -6.86400e-03,  1.17600e-03,  3.07600e-03, -5.50800e-04, -9.64000e-04],
                           [-8.32700e-02,  1.47800e-01, -1.78200e-02, -1.31500e-02, -4.17100e-04,  3.12100e-03,  9.26900e-04, -7.73500e-04],
                           [ 4.61600e-02,  5.41500e-02, -8.72100e-03, -5.79800e-03, -2.47100e-03,  3.47400e-04,  1.01400e-03,  6.53600e-05],
                           [ 2.13900e-02,  2.82800e-02, -1.25400e-04, -1.37800e-03, -2.03200e-03, -5.76700e-04,  3.34200e-04,  2.18000e-04],
                           [-3.76100e-03, -2.33100e-03,  5.85900e-03,  3.09700e-03, -1.13600e-03, -9.98600e-04, -2.18100e-05,  1.95300e-04],
                           [-2.91200e-02,  2.35100e-03,  4.85100e-03,  1.35700e-03, -2.05500e-04, -2.16900e-04, -1.09300e-04,  1.56400e-06],
                           [-1.58100e-02, -1.22800e-02,  3.12400e-03,  2.38300e-03,  7.91500e-05, -3.17000e-04, -7.63400e-05,  4.65700e-05]])

# Reaction 8
chebyshev_reaction('gQOOHb (+ M) <=> gQOOH[O] (+ M)',
                   Tmin=180.0, Tmax=1500.0,
                   Pmin=(0.01, 'atm'), Pmax=(98.692, 'atm'),
                   coeffs=[[-7.47800e+00,  1.98700e-01, -3.30300e-01, -1.46300e-02,  1.22000e-02,  1.77900e-03, -1.49600e-03, -4.06600e-04],
                           [ 8.07300e+00,  1.84400e+00,  4.74400e-02, -3.16300e-02, -1.72800e-02, -6.99700e-04,  2.46700e-03,  2.26200e-04],
                           [-6.72400e-01,  8.10700e-01,  8.26600e-02, -8.49400e-03, -4.25600e-03, -3.28500e-03, -3.77000e-04,  7.45600e-04],
                           [-4.86800e-01,  2.86600e-01,  4.46800e-02, -7.17300e-03, -1.98500e-05,  9.36000e-04, -7.82000e-04, -2.27800e-04],
                           [-1.42800e-01,  1.20900e-01,  4.05200e-03, -5.48300e-03, -1.36000e-03,  1.68600e-03,  3.90900e-04, -4.13000e-04],
                           [ 2.03000e-02,  3.50200e-02, -9.26600e-03,  4.31800e-03, -6.64400e-04, -1.09400e-03,  3.12600e-04,  1.70800e-04],
                           [ 7.48500e-03,  2.29300e-02, -9.07100e-03,  4.53900e-03,  1.15500e-03, -1.01000e-03, -3.50000e-04,  1.23700e-04],
                           [-9.13500e-03, -7.82700e-03, -3.11900e-04,  3.50400e-03,  1.34300e-03, -4.62900e-04, -3.51900e-04,  4.13300e-06],
                           [-2.61100e-02,  3.40300e-04,  1.88800e-04,  1.22900e-04,  4.75400e-04,  5.13700e-04, -3.53200e-05, -1.31400e-04],
                           [-1.60500e-02, -1.09100e-02,  1.17400e-04,  9.91800e-04, -7.98500e-05,  3.86000e-05,  1.37300e-04,  1.86300e-05]])

# Reaction 9
chebyshev_reaction('O2 + gR (+ M) <=> gQOOH[O] (+ M)',
                   Tmin=180.0, Tmax=1500.0,
                   Pmin=(0.01, 'atm'), Pmax=(98.692, 'atm'),
                   coeffs=[[ 5.23100e+00,  5.53100e-02, -2.50300e-01, -4.09100e-02,  4.48900e-03,  6.26100e-03,  3.13900e-04, -9.82500e-04],
                           [-3.26300e-01,  1.04700e+00,  7.57300e-02,  1.92800e-02, -1.09200e-02, -7.47400e-03,  1.64600e-04,  1.35900e-03],
                           [-5.13900e-01,  4.54300e-01,  1.97400e-02, -2.15500e-03,  3.81900e-03,  4.22500e-05, -5.64300e-04, -1.76800e-04],
                           [-1.47100e-01,  1.17100e-01, -7.93200e-03, -8.99300e-03,  3.36600e-03,  2.24900e-03, -1.39900e-04, -3.60400e-04],
                           [ 2.16800e-02,  6.11400e-02,  6.16000e-03, -8.99800e-03, -4.13700e-03,  5.51900e-04,  9.00100e-04,  1.87300e-04],
                           [ 6.30000e-02,  1.70600e-02,  9.51500e-03, -4.45000e-04, -2.13400e-03, -8.91800e-04, -8.17300e-05,  1.35400e-04],
                           [ 7.63500e-03,  7.75300e-03,  1.22500e-02,  1.00000e-03, -1.16600e-03, -5.82300e-04, -8.69500e-05,  3.43000e-05],
                           [-4.53500e-03, -1.64600e-02,  5.40200e-03,  2.49800e-03,  7.25900e-04, -1.62300e-04, -2.83100e-04, -7.90900e-05],
                           [-2.20600e-02, -7.61100e-03,  3.96300e-03,  5.08800e-04, -2.50000e-04,  1.07000e-04,  1.36300e-04, -7.40400e-06],
                           [-6.34400e-03, -1.67000e-02, -1.50800e-03,  1.49000e-03,  7.10000e-04, -1.17700e-05, -1.22800e-04, -2.35000e-05]])
#  gRO2(+M) <=> gQOOHa(+M)                             1.000e+00 0.000     0.000
#      TCHEB/ 180.000   1500.000 /
#      PCHEB/ 0.010     98.692   /
#      CHEB/ 10 8/
#      CHEB/ -2.181e+00   6.584e-01    -1.489e-01   -6.278e-03   5.088e-03   /
#      CHEB/ 6.906e-04    -9.878e-05   -6.834e-05   8.060e+00    1.054e+00   /
#      CHEB/ -2.003e-01   -2.533e-02   6.967e-03    2.516e-03    -1.087e-04  /
#      CHEB/ -2.045e-04   1.778e-01    5.469e-01    -3.469e-02   -3.513e-02  /
#      CHEB/ -1.739e-03   3.724e-03    4.573e-04    -2.906e-04   -2.134e-01  /
#      CHEB/ 1.982e-01    3.982e-02    -2.025e-02   -8.349e-03   1.964e-03   /
#      CHEB/ 1.254e-03    -1.150e-04   -1.468e-01   7.972e-02    2.730e-02   /
#      CHEB/ -2.593e-04   -7.205e-03   -1.180e-03   1.223e-03    2.864e-04   /
#      CHEB/ -7.208e-02   5.600e-02    3.044e-03    6.494e-03    -2.233e-03  /
#      CHEB/ -2.385e-03   3.168e-04    4.837e-04    -4.156e-02   3.605e-02   /
#      CHEB/ -2.256e-03   3.693e-03    7.773e-04    -1.424e-03   -4.446e-04  /
#      CHEB/ 2.974e-04    -2.327e-02   1.362e-02    1.265e-03    4.584e-04   /
#      CHEB/ 1.060e-03    -2.056e-04   -5.258e-04   4.901e-06    -9.667e-03  /
#      CHEB/ 1.410e-03    2.578e-03    -3.835e-04   5.071e-04    2.438e-04   /
#      CHEB/ -2.468e-04   -1.249e-04   -2.421e-03   -1.946e-03   1.552e-03   /
#      CHEB/ -1.312e-04   1.358e-04    2.080e-04    -2.558e-05   -1.019e-04  /
#  gQOOH[O](+M) <=> gQOOHa(+M)                         1.000e+00 0.000     0.000
#      TCHEB/ 180.000   1500.000 /
#      PCHEB/ 0.010     98.692   /
#      CHEB/ 10 8/
#      CHEB/ 3.399e+00    4.982e-01    -5.147e-01   2.389e-03    2.445e-02   /
#      CHEB/ -1.492e-03   -1.570e-03   -2.504e-06   5.218e-01    1.533e+00   /
#      CHEB/ 1.205e-01    -8.287e-02   -1.482e-02   8.603e-03    8.731e-04   /
#      CHEB/ -6.005e-04   -7.123e-01   6.680e-01    8.109e-02    -8.189e-03  /
#      CHEB/ -1.278e-02   -1.086e-03   1.644e-03    3.028e-04    -4.452e-01  /
#      CHEB/ 2.274e-01    2.873e-02    5.833e-03    -6.785e-03   -1.374e-03  /
#      CHEB/ 1.406e-03    1.243e-04    -1.264e-01   1.358e-01    -1.006e-02  /
#      CHEB/ -4.521e-03   -8.392e-04   -5.160e-04   5.956e-04    3.133e-04   /
#      CHEB/ 2.286e-02    5.425e-02    -8.018e-03   -2.039e-03   -2.469e-04  /
#      CHEB/ -1.077e-03   -2.174e-04   4.320e-04    6.690e-03    3.109e-02   /
#      CHEB/ -9.714e-04   -1.879e-04   4.847e-05    -6.501e-04   -5.934e-04  /
#      CHEB/ 8.627e-05    -4.496e-03   -1.047e-02   7.350e-03    3.876e-03   /
#      CHEB/ -5.827e-04   -5.225e-04   -3.138e-04   -1.052e-04   -3.287e-02  /
#      CHEB/ 4.833e-03    2.706e-03    1.154e-03    5.499e-04    2.769e-05   /