units(length='cm', time='s', quantity='mol', act_energy='kcal/mol')

ideal_gas(name='gas',
          elements="H D T C Ci O Oi N Ne Ar He Si S F Cl Br I X",
          species="""aOOHbalkene      OH               ibutanal
                     aR               performic_acid   disub_c4ether
                     aQOOHb           H                aadduct
                     trisub_epoxy     ibutenol         aQOOH[O]
                     ipropyl          aRO2             O2
                     formic_acid      propene          aQOOHg
                     ibut_peroxyacid  HO2              CH3""",
          reactions='all',
          initial_state=state(temperature=300.0, pressure=OneAtm))

#-------------------------------------------------------------------------------
# Element data
#-------------------------------------------------------------------------------

element(symbol='Ci', atomic_mass=13.003)
element(symbol='D', atomic_mass=2.014)
element(symbol='Oi', atomic_mass=18.0)
element(symbol='T', atomic_mass=3.016)
element(symbol='X', atomic_mass=195.083)
#-------------------------------------------------------------------------------
# Species data
#-------------------------------------------------------------------------------

species(name='aOOHbalkene',
        atoms='C:3 H:6 O:3',
        thermo=(NASA([10.00, 497.41],
                     [ 3.76691735E+00,  1.51417956E-02,  1.85499431E-04,
                      -4.61303214E-07,  3.27678941E-10, -3.18032781E+04,
                       1.09903968E+01]),
                NASA([497.41, 3000.00],
                     [ 6.20882781E+00,  4.08866173E-02, -2.89934946E-05,
                       9.60428979E-09, -1.19355432E-12, -3.26076075E+04,
                      -4.72842811E+00])))

species(name='OH',
        atoms='H:1 O:1',
        thermo=(NASA([10.00, 984.14],
                     [ 3.49686242E+00,  1.83973160E-04, -9.97634499E-07,
                       1.56942783E-09, -6.10128175E-13,  3.41673934E+03,
                       1.48093120E+00]),
                NASA([984.14, 3000.00],
                     [ 3.45221464E+00, -2.95124034E-04,  7.39418622E-07,
                      -2.89309866E-10,  3.53041498E-14,  3.45751599E+03,
                       1.85813897E+00])))

species(name='ibutanal',
        atoms='C:4 H:8 O:1',
        thermo=(NASA([10.00, 683.88],
                     [ 3.57157346E+00,  3.36936906E-02, -1.78475021E-05,
                       1.31946716E-08, -7.58008388E-12, -2.83438547E+04,
                       1.05595084E+01]),
                NASA([683.88, 3000.00],
                     [ 1.29043622E+00,  4.14804229E-02, -2.27411206E-05,
                       6.08619500E-09, -6.38995128E-13, -2.79019355E+04,
                       2.16477430E+01])))

species(name='aR',
        atoms='C:4 H:9 O:1',
        thermo=(NASA([10.00, 455.22],
                     [ 3.59625500E+00,  3.38947981E-02,  7.37257079E-06,
                      -3.99275335E-08,  2.49019944E-11, -1.42766874E+04,
                       1.18269265E+01]),
                NASA([455.22, 3000.00],
                     [ 2.49586309E+00,  4.35639890E-02, -2.44887770E-05,
                       6.73363769E-09, -7.23862433E-13, -1.41765043E+04,
                       1.62696907E+01])))

species(name='performic_acid',
        atoms='C:1 H:2 O:3',
        thermo=(NASA([10.00, 590.95],
                     [ 3.92633851E+00,  4.24517168E-03,  6.71106764E-05,
                      -1.36545385E-07,  8.03337864E-11, -3.63028176E+04,
                       8.06485813E+00]),
                NASA([590.95, 3000.00],
                     [ 4.39992934E+00,  1.85411415E-02, -1.36005501E-05,
                       4.62292431E-09, -5.88463603E-13, -3.66643888E+04,
                       3.44353230E+00])))

species(name='disub_c4ether',
        atoms='C:4 H:8 O:2',
        thermo=(NASA([10.00, 413.50],
                     [ 3.78241323E+00,  1.89501763E-02,  8.65302396E-05,
                      -1.80580575E-07,  1.13656264E-10, -3.95170688E+04,
                       1.09982450E+01]),
                NASA([413.50, 3000.00],
                     [ 4.29420885E-01,  5.13851903E-02, -3.11292293E-05,
                       9.11498284E-09, -1.03192718E-12, -3.92397744E+04,
                       2.42134976E+01])))

species(name='aQOOHb',
        atoms='C:4 H:9 O:3',
        thermo=(NASA([10.00, 412.78],
                     [ 3.15498836E+00,  8.55068303E-02, -2.35307993E-04,
                       4.71983261E-07, -3.62709267E-10, -2.82640747E+04,
                       1.52522123E+01]),
                NASA([412.78, 3000.00],
                     [ 4.18099845E+00,  5.26168288E-02, -3.23998410E-05,
                       9.59389339E-09, -1.09464519E-12, -2.81532798E+04,
                       1.35782328E+01])))

species(name='H',
        atoms='H:1',
        thermo=(NASA([10.00, 794.01],
                     [ 2.50000000E+00,  1.99051163E-15, -1.19089508E-17,
                       2.10805655E-20, -1.11017699E-23,  2.54725594E+04,
                      -4.61279342E-01]),
                NASA([794.01, 3000.00],
                     [ 2.50000000E+00,  1.52667235E-14, -1.58445285E-17,
                       6.63088600E-21, -9.62111674E-25,  2.54725594E+04,
                      -4.61279342E-01])))

species(name='aadduct',
        atoms='C:4 H:9 O:3',
        thermo=(NASA([10.00, 449.84],
                     [ 3.06901904E+00,  9.20724491E-02, -2.68085092E-04,
                       5.15249897E-07, -3.68046586E-10, -3.16417079E+04,
                       1.46591735E+01]),
                NASA([449.84, 3000.00],
                     [ 4.11210745E+00,  5.16955724E-02, -2.97401041E-05,
                       8.32758939E-09, -9.08861448E-13, -3.14208669E+04,
                       1.39578825E+01])))

species(name='trisub_epoxy',
        atoms='C:4 H:8 O:2',
        thermo=(NASA([10.00, 209.19],
                     [ 3.75295042E+00,  2.37546930E-02,  1.26610110E-04,
                      -4.78364365E-07,  5.79468168E-10, -4.23866688E+04,
                       1.12739684E+01]),
                NASA([209.19, 3000.00],
                     [ 2.64185254E+00,  4.50006531E-02, -2.57361066E-05,
                       7.15266054E-09, -7.72980731E-13, -4.23401832E+04,
                       1.48960343E+01])))

species(name='ibutenol',
        atoms='C:4 H:8 O:1',
        thermo=(NASA([10.00, 135.97],
                     [ 3.95714996E+00,  5.72646980E-03,  4.63611760E-04,
                      -3.04137514E-06,  6.85019471E-09, -2.26696985E+04,
                       8.21931848E+00]),
                NASA([135.97, 3000.00],
                     [ 3.32467612E+00,  3.69033556E-02, -1.89960416E-05,
                       4.73417677E-09, -4.59705291E-13, -2.26641198E+04,
                       9.58133237E+00])))

species(name='aQOOH[O]',
        atoms='C:4 H:9 O:3',
        thermo=(NASA([10.00, 488.36],
                     [ 3.54559533E+00,  3.89536133E-02,  8.47689703E-05,
                      -2.45147486E-07,  1.76157259E-10, -2.58680054E+04,
                       1.34685910E+01]),
                NASA([488.36, 3000.00],
                     [ 3.94214913E+00,  5.71928314E-02, -3.72516212E-05,
                       1.15209013E-08, -1.35808341E-12, -2.61629663E+04,
                       9.21628964E+00])))

species(name='ipropyl',
        atoms='C:3 H:7',
        thermo=(NASA([10.00, 421.76],
                     [ 3.73943775E+00,  3.10070157E-02, -1.51196908E-04,
                       4.35367329E-07, -3.85565052E-10,  9.49213457E+03,
                       7.79448918E+00]),
                NASA([421.76, 3000.00],
                     [-4.74526725E-01,  3.20862468E-02, -1.67340747E-05,
                       4.21365136E-09, -4.13155573E-13,  1.01934458E+04,
                       2.85865912E+01])))

species(name='aRO2',
        atoms='C:4 H:9 O:3',
        thermo=(NASA([10.00, 670.36],
                     [ 3.45405325E+00,  4.74751311E-02,  9.77507759E-06,
                      -6.31019603E-08,  3.75500067E-11, -3.37643613E+04,
                       1.39284976E+01]),
                NASA([670.36, 3000.00],
                     [ 5.04137652E+00,  5.19952978E-02, -3.16472789E-05,
                       9.22798587E-09, -1.03598915E-12, -3.42915539E+04,
                       4.56056770E+00])))

species(name='O2',
        atoms='O:2',
        thermo=(NASA([10.00, 605.96],
                     [ 3.50743498E+00, -4.43860349E-04,  1.45938058E-06,
                       1.61509333E-09, -2.32050052E-12, -9.24756224E+02,
                       4.72183634E+00]),
                NASA([605.96, 3000.00],
                     [ 2.87462882E+00,  2.17840991E-03, -1.18262921E-06,
                       2.86910493E-10, -2.53297146E-14, -8.19517838E+02,
                       7.69331810E+00])))

species(name='formic_acid',
        atoms='C:1 H:2 O:2',
        thermo=(NASA([10.00, 741.38],
                     [ 4.06855785E+00, -4.74562133E-03,  4.71797900E-05,
                      -6.07490052E-08,  2.51286794E-11, -4.66880837E+04,
                       6.53681035E+00]),
                NASA([741.38, 3000.00],
                     [ 1.13645847E+00,  1.74953124E-02, -1.08112403E-05,
                       3.08075326E-09, -3.34892658E-13, -4.64297918E+04,
                       1.86149484E+01])))

species(name='propene',
        atoms='C:3 H:6',
        thermo=(NASA([10.00, 519.53],
                     [ 3.98723879E+00,  4.72040503E-04,  6.51776229E-05,
                      -9.89891002E-08,  4.91141123E-11,  1.93608481E+03,
                       6.98071210E+00]),
                NASA([519.53, 3000.00],
                     [ 3.79893331E-01,  2.82457690E-02, -1.50108430E-05,
                       3.90894069E-09, -4.00521928E-13,  2.31091216E+03,
                       2.20218922E+01])))

species(name='aQOOHg',
        atoms='C:4 H:9 O:3',
        thermo=(NASA([10.00, 455.48],
                     [ 3.62522127E+00,  2.83222320E-02,  2.08527447E-04,
                      -5.67427418E-07,  4.35169138E-10, -2.40067396E+04,
                       1.26617758E+01]),
                NASA([455.48, 3000.00],
                     [ 5.13914202E+00,  5.96270859E-02, -4.14435328E-05,
                       1.34202375E-08, -1.63474553E-12, -2.46072959E+04,
                       1.46991116E+00])))

species(name='ibut_peroxyacid',
        atoms='C:4 H:8 O:3',
        thermo=(NASA([10.00, 1386.21],
                     [ 3.50995385E+00,  4.78670384E-02, -2.40781384E-05,
                       3.71046938E-09,  3.85442115E-13, -4.79589624E+04,
                       1.22017268E+01]),
                NASA([1386.21, 3000.00],
                     [ 1.24543146E+01,  3.02396862E-02, -1.38577031E-05,
                       3.05328904E-09, -2.63982457E-13, -5.12248457E+04,
                      -3.67061828E+01])))

species(name='HO2',
        atoms='H:1 O:2',
        thermo=(NASA([10.00, 891.11],
                     [ 4.02887004E+00, -1.75769289E-03,  1.08726004E-05,
                      -1.13812972E-08,  3.90113097E-12,  4.95165001E+02,
                       4.69302008E+00]),
                NASA([891.11, 3000.00],
                     [ 3.06571044E+00,  4.28505005E-03, -2.19325920E-06,
                       5.58882699E-10, -5.61246669E-14,  5.98557610E+02,
                       8.84564156E+00])))

species(name='CH3',
        atoms='C:1 H:3',
        thermo=(NASA([10.00, 616.77],
                     [ 3.98929952E+00,  5.45150461E-04,  9.01320092E-06,
                      -1.08320497E-08,  4.38985879E-12,  1.65859883E+04,
                       2.22446886E-01]),
                NASA([616.77, 3000.00],
                     [ 3.35928237E+00,  4.63117126E-03, -9.24365433E-07,
                      -9.02514624E-11,  3.56905106E-14,  1.66637014E+04,
                       2.95743732E+00])))

#-------------------------------------------------------------------------------
# Reaction data
#-------------------------------------------------------------------------------

# Reaction 1
chebyshev_reaction('aQOOH[O] (+ M) <=> aQOOHb (+ M)',
                   Tmin=180.0, Tmax=1500.0,
                   Pmin=(0.01, 'atm'), Pmax=(98.692, 'atm'),
                   coeffs=[[-5.47000e+00,  3.10800e+00, -5.72700e-01,  8.02700e-02, -6.23900e-03, -2.26700e-02,  9.05200e-03,  2.83100e-03],
                           [-1.84400e+00,  8.25600e-01,  5.63600e-01, -5.07500e-02,  3.26700e-02,  1.84000e-02, -1.46400e-02, -2.24600e-03],
                           [-3.33900e+00, -1.27600e-01,  2.50600e-02,  2.41600e-02, -2.29400e-03,  5.06700e-03,  1.90500e-03, -6.64800e-04],
                           [-1.68900e+00, -1.64600e-01, -7.23800e-02, -1.76500e-02, -5.36800e-03,  9.12900e-04,  2.54400e-03,  1.15800e-04],
                           [-7.61400e-01, -4.93500e-02, -3.23300e-02, -1.48500e-02, -4.74900e-03, -1.36000e-03,  6.14400e-04,  2.92300e-04],
                           [-3.18100e-01, -4.41200e-03, -1.02800e-02, -5.24700e-03, -3.73100e-04, -3.30400e-04, -1.77500e-04,  1.50400e-05],
                           [-1.23200e-01,  5.86900e-03, -9.81400e-03, -4.23200e-03,  1.07600e-03,  9.35200e-04,  9.07900e-06, -9.67000e-05],
                           [-4.28900e-02,  6.71400e-03, -1.03700e-02, -5.13600e-03, -7.21000e-04,  7.82400e-04,  3.20900e-04, -1.67800e-06],
                           [ 4.92700e-03, -3.36000e-03, -5.99700e-04, -4.17100e-03, -2.27200e-03,  1.15800e-04,  1.38300e-04,  2.76500e-05],
                           [ 1.79400e-03,  1.81500e-02,  2.03000e-03,  1.69700e-04, -1.28300e-03, -9.31000e-04, -1.16500e-04,  6.51500e-05]])

# Reaction 2
chebyshev_reaction('aQOOHg (+ M) <=> aQOOHb (+ M)',
                   Tmin=180.0, Tmax=1500.0,
                   Pmin=(0.01, 'atm'), Pmax=(98.692, 'atm'),
                   coeffs=[[-6.71500e+00,  3.02300e+00, -4.07400e-01,  5.78300e-02, -1.48700e-02, -1.11000e-02,  3.81200e-03,  4.58800e-04],
                           [-6.19900e+00,  1.56900e+00,  5.63200e-01, -3.88100e-02,  2.59200e-02,  7.14000e-03, -9.25000e-03, -9.31800e-04],
                           [-4.09100e+00, -3.35300e-01, -1.65700e-02,  3.89300e-02,  7.06700e-03,  5.82000e-03,  2.57500e-03, -6.62900e-04],
                           [-1.78100e+00, -2.98000e-01, -1.63700e-01, -3.37500e-02,  4.06300e-03,  3.53700e-03,  1.47600e-03,  4.88600e-04],
                           [-6.41800e-01, -2.99300e-03, -4.35300e-02, -3.75200e-02, -1.10700e-02,  4.90800e-04,  1.55800e-03,  1.67400e-04],
                           [-2.70800e-01,  2.68300e-02,  2.89200e-02,  3.55700e-03, -4.88000e-03, -3.26900e-03, -2.24700e-04,  2.73800e-04],
                           [-1.33100e-01, -3.04100e-02,  5.88600e-03,  1.07900e-02,  5.55100e-03,  3.75900e-04, -1.09200e-03, -4.15400e-04],
                           [-3.39300e-02, -3.72900e-02, -2.01400e-02, -6.82200e-03,  2.46600e-03,  3.22800e-03,  5.76500e-04, -4.26100e-04],
                           [ 2.95800e-02, -1.47400e-02, -1.06700e-02, -7.96700e-03, -4.89900e-03,  3.21000e-04,  1.21600e-03,  3.33500e-04],
                           [ 1.17700e-02,  8.62600e-03,  8.06000e-03,  1.66400e-03, -3.34800e-03, -2.20200e-03, -1.90700e-04,  4.00100e-04]])

# Reaction 3
chebyshev_reaction('aRO2 (+ M) <=> aQOOHb (+ M)',
                   Tmin=180.0, Tmax=1500.0,
                   Pmin=(0.01, 'atm'), Pmax=(98.692, 'atm'),
                   coeffs=[[-6.75900e+00,  1.20700e+00, -1.07500e-02,  4.58400e-02, -9.29300e-03,  9.54900e-04, -8.49300e-04, -1.03500e-04],
                           [ 2.25100e+00,  1.25000e+00,  2.03000e-01,  1.32800e-02,  5.90700e-03, -3.01100e-03, -8.02800e-04, -8.26800e-05],
                           [-3.22900e+00,  2.35700e-01,  9.30800e-02,  1.17600e-02,  7.77500e-03,  1.10500e-04, -8.31600e-04, -4.83300e-05],
                           [-1.82300e+00, -9.98100e-02, -4.76300e-02, -3.32900e-03,  4.82800e-03,  1.90800e-03,  9.07500e-05,  1.03800e-05],
                           [-8.89300e-01, -9.09600e-02, -7.49600e-02, -1.53500e-02,  4.43200e-04,  9.69000e-04,  4.49100e-04,  2.10300e-04],
                           [-3.91000e-01, -1.50500e-02, -4.99000e-02, -1.38500e-02, -4.87800e-04,  1.68900e-04,  1.19900e-04,  1.68000e-04],
                           [-1.44500e-01,  2.66600e-02, -2.28500e-02, -1.03400e-02,  1.08400e-05,  4.04300e-04,  6.37800e-05,  3.74000e-05],
                           [-4.31100e-02,  3.68400e-02, -6.48000e-03, -7.38300e-03, -7.45100e-04,  3.42700e-04,  2.08400e-04,  5.07800e-05],
                           [ 2.48900e-03,  3.41000e-02,  1.77100e-03, -2.98900e-03, -1.44700e-03, -3.34000e-04,  9.92800e-05,  7.75000e-05],
                           [ 2.89900e-03,  2.82700e-02,  3.91600e-03,  2.23300e-03, -9.19900e-04, -6.69600e-04, -1.97400e-04,  5.75600e-06]])

# Reaction 4
chebyshev_reaction('aadduct (+ M) <=> aQOOHb (+ M)',
                   Tmin=180.0, Tmax=1500.0,
                   Pmin=(0.01, 'atm'), Pmax=(98.692, 'atm'),
                   coeffs=[[-9.71400e+00, -6.78700e-01,  2.35600e-02,  6.35100e-02, -1.50000e-02, -4.29800e-04, -1.55700e-03,  4.34300e-04],
                           [-1.31700e+00,  1.30000e+00,  2.27300e-01,  1.69000e-02,  2.48200e-03, -5.92800e-03, -1.46000e-03,  2.37300e-04],
                           [-3.80200e+00,  2.69700e-01,  1.04300e-01,  8.67700e-03,  3.24300e-03, -1.39600e-03, -3.07600e-04,  5.90100e-04],
                           [-2.10500e+00, -8.93500e-02, -4.88400e-02, -6.79200e-03,  1.64500e-03,  1.54800e-03,  7.27300e-04,  5.50500e-04],
                           [-1.03500e+00, -1.01300e-01, -8.08200e-02, -1.42100e-02,  2.13300e-03,  2.33000e-03,  7.62500e-04,  1.20000e-04],
                           [-4.79200e-01, -4.81900e-03, -4.61000e-02, -1.35700e-02, -8.59200e-04,  2.34600e-04,  2.92300e-04,  1.83700e-04],
                           [-1.76400e-01,  2.17600e-02, -2.48200e-02, -9.21600e-03,  5.72800e-04,  4.64400e-04, -1.73700e-04, -6.76000e-05],
                           [-8.90700e-02,  5.51600e-02,  1.74000e-03, -7.90500e-03, -2.22800e-03, -3.89200e-04,  3.16100e-04,  2.16500e-04],
                           [ 1.53300e-03,  2.02700e-02, -4.45300e-03, -2.42100e-03, -2.59500e-04,  2.52400e-04,  2.65300e-05, -3.64600e-05],
                           [-3.00600e-03,  2.85200e-02,  2.01800e-03,  5.29500e-04, -1.84900e-03, -7.05200e-04, -2.08800e-05,  1.04200e-04]])

# Reaction 5
chebyshev_reaction('O2 + aR (+ M) <=> aQOOHb (+ M)',
                   Tmin=180.0, Tmax=1500.0,
                   Pmin=(0.01, 'atm'), Pmax=(98.692, 'atm'),
                   coeffs=[[-2.92800e+00,  7.49500e+00, -5.85100e-01, -3.37200e-01,  1.34900e-01,  5.84700e-02, -2.99200e-02, -1.25100e-02],
                           [-1.14500e+00, -2.81500e+00,  1.44900e+00,  2.10000e-01, -2.41600e-01, -4.65200e-02,  4.42500e-02,  9.47400e-03],
                           [-1.54300e+00, -3.87300e-01, -7.46500e-02,  1.32700e-01,  2.07100e-02, -2.96800e-02, -4.57800e-03,  7.66500e-03],
                           [-7.67700e-01, -1.94800e-01, -1.03700e-01,  3.04100e-02,  2.11400e-02, -1.51700e-03, -6.35100e-03, -1.07000e-03],
                           [-3.15500e-01, -9.85200e-02, -4.43400e-02, -3.50600e-03,  9.91500e-03,  3.47200e-03, -2.93400e-03, -1.31300e-03],
                           [-9.85000e-02, -6.24900e-02, -7.77600e-03, -5.85500e-03,  7.55800e-03,  2.12600e-03, -2.81400e-04, -7.87500e-04],
                           [-1.31900e-02, -4.39500e-02, -6.85400e-03, -1.06400e-03,  3.29700e-03,  2.14000e-03,  8.40400e-04, -7.04500e-04],
                           [ 1.26100e-02, -3.97200e-02, -5.37500e-03, -2.24600e-03, -1.66400e-03,  2.53000e-03,  7.16000e-04, -2.50700e-04],
                           [ 2.46800e-02, -2.81500e-02, -3.04600e-03, -1.75500e-03, -4.26400e-03,  8.40700e-04,  7.09700e-04,  6.53000e-05],
                           [ 2.89100e-02, -2.65300e-02,  7.13000e-03, -1.77400e-03, -2.68300e-03, -1.09900e-03,  2.71600e-04,  2.15600e-04]])
#  aQOOHb(+M) <=> aQOOH[O](+M)                         1.000e+00 0.000     0.000
#      TCHEB/ 180.000   1500.000 /
#      PCHEB/ 0.010     98.692   /
#      CHEB/ 10 8/
#      CHEB/ -1.020e+01   3.108e+00    -5.727e-01   8.027e-02    -6.239e-03  /
#      CHEB/ -2.267e-02   9.052e-03    2.831e-03    5.210e-01    8.256e-01   /
#      CHEB/ 5.636e-01    -5.075e-02   3.267e-02    1.840e-02    -1.464e-02  /
#      CHEB/ -2.246e-03   -3.261e+00   -1.276e-01   2.506e-02    2.416e-02   /
#      CHEB/ -2.294e-03   5.067e-03    1.905e-03    -6.648e-04   -1.643e+00  /
#      CHEB/ -1.646e-01   -7.238e-02   -1.765e-02   -5.368e-03   9.129e-04   /
#      CHEB/ 2.544e-03    1.158e-04    -7.460e-01   -4.935e-02   -3.233e-02  /
#      CHEB/ -1.485e-02   -4.749e-03   -1.360e-03   6.144e-04    2.923e-04   /
#      CHEB/ -3.133e-01   -4.412e-03   -1.028e-02   -5.247e-03   -3.731e-04  /
#      CHEB/ -3.304e-04   -1.775e-04   1.504e-05    -1.214e-01   5.869e-03   /
#      CHEB/ -9.814e-03   -4.232e-03   1.076e-03    9.352e-04    9.079e-06   /
#      CHEB/ -9.670e-05   -4.217e-02   6.714e-03    -1.037e-02   -5.136e-03  /
#      CHEB/ -7.210e-04   7.824e-04    3.209e-04    -1.678e-06   5.121e-03   /
#      CHEB/ -3.360e-03   -5.997e-04   -4.171e-03   -2.272e-03   1.158e-04   /
#      CHEB/ 1.383e-04    2.765e-05    1.801e-03    1.815e-02    2.030e-03   /
#      CHEB/ 1.697e-04    -1.283e-03   -9.310e-04   -1.165e-04   6.515e-05   /

# Reaction 6
chebyshev_reaction('aQOOHg (+ M) <=> aQOOH[O] (+ M)',
                   Tmin=180.0, Tmax=1500.0,
                   Pmin=(0.01, 'atm'), Pmax=(98.692, 'atm'),
                   coeffs=[[-3.01900e+00,  2.40900e+00, -4.54600e-01, -6.75300e-03,  1.23700e-02,  5.90200e-04, -7.86400e-04, -1.44500e-04],
                           [-5.36700e+00,  1.58400e+00,  4.21300e-01, -2.34200e-02, -1.23200e-02,  4.26600e-03,  1.04000e-03, -8.29300e-04],
                           [-4.06400e+00, -3.73700e-01, -3.98100e-02,  5.24500e-02,  1.23900e-02, -3.45100e-03, -4.30400e-04,  6.79800e-04],
                           [-1.73600e+00, -2.26200e-01, -1.53800e-01, -2.43400e-02,  1.40300e-02,  4.23600e-03, -1.47600e-03, -4.14800e-04],
                           [-6.84900e-01,  2.65000e-02, -3.73000e-02, -3.39900e-02, -4.26100e-03,  4.09000e-03,  1.04200e-03, -4.94700e-04],
                           [-3.40600e-01,  3.00800e-02,  2.09000e-02, -1.48000e-03, -4.82700e-03, -1.05100e-03,  5.61000e-04,  3.38500e-04],
                           [-1.89200e-01, -2.32600e-02,  1.68900e-04,  3.51600e-03,  1.87700e-03,  1.16600e-04, -5.12100e-04, -1.19600e-04],
                           [-6.31200e-02, -1.74000e-02, -1.99500e-02, -8.76000e-03, -8.12200e-04,  1.81800e-03,  5.52300e-04, -3.04200e-04],
                           [ 1.59900e-02, -3.70700e-03, -3.21100e-04, -8.10400e-03, -5.10500e-03, -6.55800e-04,  8.08200e-04,  3.04900e-04],
                           [-1.31300e-03,  2.88000e-02,  1.24900e-02,  4.09400e-03, -2.39500e-03, -2.23800e-03, -3.83200e-04,  2.59000e-04]])

# Reaction 7
chebyshev_reaction('aRO2 (+ M) <=> aQOOH[O] (+ M)',
                   Tmin=180.0, Tmax=1500.0,
                   Pmin=(0.01, 'atm'), Pmax=(98.692, 'atm'),
                   coeffs=[[-6.89400e+00,  3.11600e+00, -7.77400e-01,  1.19700e-01,  2.47200e-02, -2.04900e-02,  4.33600e-03,  1.08300e-03],
                           [ 6.35100e+00,  5.61600e-01,  5.08800e-01, -1.56900e-01,  4.10800e-03,  1.92700e-02, -7.72200e-03,  2.27600e-04],
                           [-3.35800e+00, -1.15800e-01,  1.01500e-01,  1.87900e-02, -1.23400e-02,  3.77100e-03,  1.26000e-03, -1.06500e-03],
                           [-1.80900e+00, -2.13300e-01, -2.13100e-02,  1.13700e-02, -2.12300e-03, -2.55500e-04,  9.77100e-04, -1.51500e-04],
                           [-8.95800e-01, -1.26200e-01, -3.88100e-02, -3.47600e-05,  8.80300e-04, -5.60600e-04,  8.58700e-05,  3.65200e-05],
                           [-4.00200e-01, -4.35200e-02, -3.09500e-02, -5.35200e-03,  1.32700e-03,  2.82500e-04, -1.04900e-04, -5.43300e-05],
                           [-1.52900e-01,  1.11400e-02, -1.78600e-02, -7.77700e-03, -2.94900e-04,  5.43700e-04,  1.49900e-04, -1.91400e-05],
                           [-3.94900e-02,  3.40700e-02, -4.56900e-03, -5.40100e-03, -2.09500e-03, -2.70600e-05,  2.53100e-04,  5.86200e-05],
                           [ 7.94100e-03,  2.33600e-02,  1.01500e-02, -1.66600e-03, -2.32900e-03, -4.10400e-04,  1.99200e-05,  4.81700e-05],
                           [-1.67300e-03,  3.09100e-02,  8.19600e-03,  2.28500e-03, -3.57600e-04, -8.12000e-04, -1.48300e-04,  3.05500e-05]])

# Reaction 8
chebyshev_reaction('aadduct (+ M) <=> aQOOH[O] (+ M)',
                   Tmin=180.0, Tmax=1500.0,
                   Pmin=(0.01, 'atm'), Pmax=(98.692, 'atm'),
                   coeffs=[[-9.84900e+00,  1.23000e+00, -7.43000e-01,  1.37400e-01,  1.90100e-02, -2.18700e-02,  3.62900e-03,  1.62100e-03],
                           [ 2.78300e+00,  6.12300e-01,  5.33100e-01, -1.53300e-01,  6.83000e-04,  1.63500e-02, -8.38000e-03,  5.47800e-04],
                           [-3.93100e+00, -8.18200e-02,  1.12800e-01,  1.57100e-02, -1.68700e-02,  2.26400e-03,  1.78400e-03, -4.26900e-04],
                           [-2.09100e+00, -2.02900e-01, -2.25100e-02,  7.91100e-03, -5.30600e-03, -6.16400e-04,  1.61400e-03,  3.88700e-04],
                           [-1.04200e+00, -1.36500e-01, -4.46600e-02,  1.10700e-03,  2.56900e-03,  7.99500e-04,  3.99100e-04, -5.36800e-05],
                           [-4.88400e-01, -3.32800e-02, -2.71400e-02, -5.07700e-03,  9.55100e-04,  3.47600e-04,  6.74100e-05, -3.85400e-05],
                           [-1.84800e-01,  6.25100e-03, -1.98400e-02, -6.64900e-03,  2.66700e-04,  6.03400e-04, -8.77500e-05, -1.24100e-04],
                           [-8.54500e-02,  5.23900e-02,  3.65600e-03, -5.92100e-03, -3.57800e-03, -7.59300e-04,  3.60800e-04,  2.24300e-04],
                           [ 6.98500e-03,  9.53600e-03,  3.92700e-03, -1.09600e-03, -1.14100e-03,  1.75800e-04, -5.29000e-05, -6.57500e-05],
                           [-7.57800e-03,  3.11500e-02,  6.30200e-03,  5.82400e-04, -1.28600e-03, -8.47900e-04,  2.81600e-05,  1.29000e-04]])

# Reaction 9
chebyshev_reaction('O2 + aR (+ M) <=> aQOOH[O] (+ M)',
                   Tmin=180.0, Tmax=1500.0,
                   Pmin=(0.01, 'atm'), Pmax=(98.692, 'atm'),
                   coeffs=[[ 1.82700e+00,  5.95100e+00, -3.36700e-01, -5.08400e-01,  9.85500e-02,  7.94600e-02, -2.48900e-02, -1.40600e-02],
                           [-1.16900e+00, -2.65100e+00,  1.01400e+00,  4.24900e-01, -2.49700e-01, -6.82900e-02,  5.09600e-02,  1.22700e-02],
                           [-1.27600e+00, -2.47000e-01, -1.03400e-01,  1.69500e-01,  5.56200e-02, -5.11800e-02, -1.03900e-02,  9.90500e-03],
                           [-7.28700e-01, -1.33900e-01, -1.01700e-01,  3.06900e-02,  5.04000e-02, -1.90500e-03, -1.41100e-02,  7.67100e-04],
                           [-3.79500e-01, -9.71500e-02, -4.85200e-02, -1.62800e-02,  2.15600e-02,  1.24200e-02, -7.16200e-03, -2.32600e-03],
                           [-1.90900e-01, -4.07400e-02, -3.68900e-02, -1.49800e-02,  4.10200e-03,  7.81800e-03,  2.12300e-04, -2.68900e-03],
                           [-9.43600e-02, -5.60300e-03, -2.84100e-02, -9.87700e-03, -1.42000e-03,  1.76800e-03,  2.81500e-03, -1.49400e-03],
                           [-3.03800e-02, -2.52000e-03, -5.86900e-03, -8.55600e-03, -4.58600e-03,  1.86800e-03,  3.11700e-04,  2.05100e-04],
                           [-1.46000e-04,  3.45000e-03,  7.93500e-03, -6.87700e-03, -1.46400e-03, -1.25800e-03,  5.74600e-04,  2.92500e-04],
                           [-1.87800e-03,  1.91700e-02,  7.34900e-04,  4.50400e-03, -2.93200e-03, -5.41000e-04,  1.49500e-04,  1.28400e-05]])
#  aQOOHb(+M) <=> aQOOHg(+M)                           1.000e+00 0.000     0.000
#      TCHEB/ 180.000   1500.000 /
#      PCHEB/ 0.010     98.692   /
#      CHEB/ 10 8/
#      CHEB/ -1.416e+01   3.023e+00    -4.074e-01   5.783e-02    -1.487e-02  /
#      CHEB/ -1.110e-02   3.812e-03    4.588e-04    -1.553e+00   1.569e+00   /
#      CHEB/ 5.632e-01    -3.881e-02   2.592e-02    7.140e-03    -9.250e-03  /
#      CHEB/ -9.318e-04   -3.867e+00   -3.353e-01   -1.657e-02   3.893e-02   /
#      CHEB/ 7.067e-03    5.820e-03    2.575e-03    -6.629e-04   -1.687e+00  /
#      CHEB/ -2.980e-01   -1.637e-01   -3.375e-02   4.063e-03    3.537e-03   /
#      CHEB/ 1.476e-03    4.886e-04    -6.136e-01   -2.993e-03   -4.353e-02  /
#      CHEB/ -3.752e-02   -1.107e-02   4.908e-04    1.558e-03    1.674e-04   /
#      CHEB/ -2.629e-01   2.683e-02    2.892e-02    3.557e-03    -4.880e-03  /
#      CHEB/ -3.269e-03   -2.247e-04   2.738e-04    -1.306e-01   -3.041e-02  /
#      CHEB/ 5.886e-03    1.079e-02    5.551e-03    3.759e-04    -1.092e-03  /
#      CHEB/ -4.154e-04   -3.320e-02   -3.729e-02   -2.014e-02   -6.822e-03  /
#      CHEB/ 2.466e-03    3.228e-03    5.765e-04    -4.261e-04   2.960e-02   /
#      CHEB/ -1.474e-02   -1.067e-02   -7.967e-03   -4.899e-03   3.210e-04   /
#      CHEB/ 1.216e-03    3.335e-04    1.163e-02    8.626e-03    8.060e-03   /
#      CHEB/ 1.664e-03    -3.348e-03   -2.202e-03   -1.907e-04   4.001e-04   /
#  aQOOH[O](+M) <=> aQOOHg(+M)                         1.000e+00 0.000     0.000
#      TCHEB/ 180.000   1500.000 /
#      PCHEB/ 0.010     98.692   /
#      CHEB/ 10 8/
#      CHEB/ -5.730e+00   2.409e+00    -4.546e-01   -6.753e-03   1.237e-02   /
#      CHEB/ 5.902e-04    -7.864e-04   -1.445e-04   -3.087e+00   1.584e+00   /
#      CHEB/ 4.213e-01    -2.342e-02   -1.232e-02   4.266e-03    1.040e-03   /
#      CHEB/ -8.293e-04   -3.918e+00   -3.737e-01   -3.981e-02   5.245e-02   /
#      CHEB/ 1.239e-02    -3.451e-03   -4.304e-04   6.798e-04    -1.688e+00  /
#      CHEB/ -2.262e-01   -1.538e-01   -2.434e-02   1.403e-02    4.236e-03   /
#      CHEB/ -1.476e-03   -4.148e-04   -6.720e-01   2.650e-02    -3.730e-02  /
#      CHEB/ -3.399e-02   -4.261e-03   4.090e-03    1.042e-03    -4.947e-04  /