units(length='cm', time='s', quantity='mol', act_energy='kcal/mol')

ideal_gas(name='gas',
          elements="H D T C Ci O Oi N Ne Ar He Si S F Cl Br I X",
          species="""propene3ol       OH               disub_c4ether
                     H2O              disub_epoxy      gQOOHa
                     propene1ol       gQOOHb           ipropylOOH
                     galdoxy          galkene          CH2O
                     O2               gRO2             gQOOHg
                     gR               galdol           monosub_c4ether
                     HO2              gQOOH[O]""",
          reactions='all',
          initial_state=state(temperature=300.0, pressure=OneAtm))

#-------------------------------------------------------------------------------
# Element data
#-------------------------------------------------------------------------------

element(symbol='Ci', atomic_mass=13.003)
element(symbol='D', atomic_mass=2.014)
element(symbol='Oi', atomic_mass=18.0)
element(symbol='T', atomic_mass=3.016)
element(symbol='X', atomic_mass=195.083)
#-------------------------------------------------------------------------------
# Species data
#-------------------------------------------------------------------------------

species(name='propene3ol',
        atoms='C:3 H:6 O:1',
        thermo=(NASA([10.00, 444.81],
                     [ 3.92769709E+00,  4.89977303E-03,  1.13094874E-04,
                      -2.59008187E-07,  1.86205760E-10, -1.47929520E+04,
                       9.90805416E+00]),
                NASA([444.81, 3000.00],
                     [ 2.61720343E+00,  3.01777872E-02, -1.76511625E-05,
                       5.14864061E-09, -5.91153761E-13, -1.48098525E+04,
                       1.36683107E+01])))

species(name='OH',
        atoms='H:1 O:1',
        thermo=(NASA([10.00, 984.14],
                     [ 3.49686242E+00,  1.83973160E-04, -9.97634499E-07,
                       1.56942783E-09, -6.10128175E-13,  3.41673934E+03,
                       1.48093120E+00]),
                NASA([984.14, 3000.00],
                     [ 3.45221464E+00, -2.95124034E-04,  7.39418622E-07,
                      -2.89309866E-10,  3.53041498E-14,  3.45751599E+03,
                       1.85813897E+00])))

species(name='disub_c4ether',
        atoms='C:4 H:8 O:2',
        thermo=(NASA([10.00, 413.50],
                     [ 3.78241323E+00,  1.89501763E-02,  8.65302396E-05,
                      -1.80580575E-07,  1.13656264E-10, -4.04855936E+04,
                       1.09982450E+01]),
                NASA([413.50, 3000.00],
                     [ 4.29420885E-01,  5.13851903E-02, -3.11292293E-05,
                       9.11498284E-09, -1.03192718E-12, -4.02082992E+04,
                       2.42134976E+01])))

species(name='H2O',
        atoms='H:2 O:1',
        thermo=(NASA([10.00, 773.84],
                     [ 4.00473541E+00, -2.39729134E-04,  8.11862955E-07,
                       1.47891862E-09, -1.19783539E-12, -3.03533807E+04,
                      -9.96254147E-02]),
                NASA([773.84, 3000.00],
                     [ 3.52133374E+00,  1.05377009E-03,  6.40722099E-07,
                      -3.86240235E-10,  5.49243294E-14, -3.02424794E+04,
                       2.34173094E+00])))

species(name='disub_epoxy',
        atoms='C:4 H:8 O:2',
        thermo=(NASA([10.00, 549.41],
                     [ 3.89863211E+00,  5.97532637E-03,  1.66685676E-04,
                      -3.10743768E-07,  1.78330192E-10, -3.58189655E+04,
                       1.13847308E+01]),
                NASA([549.41, 3000.00],
                     [-6.40277648E-01,  6.05960003E-02, -4.13427220E-05,
                       1.31555461E-08, -1.57685017E-12, -3.56458486E+04,
                       2.76005436E+01])))

species(name='gQOOHa',
        atoms='C:4 H:9 O:3',
        thermo=(NASA([10.00, 160.74],
                     [ 3.80808147E+00,  2.31043884E-02,  5.26945984E-04,
                      -3.11500696E-06,  6.03881958E-09, -2.59786554E+04,
                       1.17645316E+01]),
                NASA([160.74, 3000.00],
                     [ 2.90630300E+00,  6.50241173E-02, -4.60073244E-05,
                       1.51330930E-08, -1.87074267E-12, -2.59748308E+04,
                       1.36838819E+01])))

species(name='propene1ol',
        atoms='C:3 H:6 O:1',
        thermo=(NASA([10.00, 459.42],
                     [ 3.91245344E+00,  5.85800161E-03,  1.15412006E-04,
                      -2.68014417E-07,  1.91800131E-10, -1.91708854E+04,
                       8.14807684E+00]),
                NASA([459.42, 3000.00],
                     [ 3.14049093E+00,  2.95550898E-02, -1.73843684E-05,
                       5.11506211E-09, -5.92966137E-13, -1.92791079E+04,
                       9.32215170E+00])))

species(name='gQOOHb',
        atoms='C:4 H:9 O:3',
        thermo=(NASA([10.00, 1018.67],
                     [ 3.99028351E+00,  4.29665712E-02,  2.28338778E-05,
                      -5.67914439E-08,  2.29383258E-11, -2.25747044E+04,
                       1.20326731E+01]),
                NASA([1018.67, 3000.00],
                     [ 1.38304153E+01,  3.88527019E-02, -2.19473905E-05,
                       5.78719895E-09, -5.85097740E-13, -2.63707891E+04,
                      -4.44147388E+01])))

species(name='ipropylOOH',
        atoms='C:3 H:7 O:2',
        thermo=(NASA([10.00, 405.01],
                     [ 3.30075623E+00,  7.58672756E-02, -3.35754269E-04,
                       8.05972164E-07, -6.68864582E-10, -7.26856732E+02,
                       1.43372849E+01]),
                NASA([405.01, 3000.00],
                     [ 2.51742509E+00,  3.72760950E-02, -2.12450220E-05,
                       5.83593926E-09, -6.22110649E-13, -2.83449125E+02,
                       2.20991392E+01])))

species(name='galdoxy',
        atoms='C:4 H:7 O:2',
        thermo=(NASA([10.00, 209.62],
                     [ 3.82641108E+00,  1.84758886E-02,  3.43073800E-04,
                      -1.82817005E-06,  2.98516720E-09, -2.02048036E+04,
                       1.17972706E+01]),
                NASA([209.62, 3000.00],
                     [ 4.22049016E+00,  4.03370149E-02, -2.36129482E-05,
                       6.72979114E-09, -7.47862493E-13, -2.02858734E+04,
                       8.97211724E+00])))

species(name='galkene',
        atoms='C:4 H:8 O:1',
        thermo=(NASA([10.00, 383.47],
                     [ 3.84035604E+00,  1.20378740E-02,  1.87486319E-04,
                      -5.44759148E-07,  4.80711015E-10, -2.10383806E+04,
                       1.02570291E+01]),
                NASA([383.47, 3000.00],
                     [ 4.00413385E+00,  3.79025144E-02, -2.15435710E-05,
                       6.15213311E-09, -6.97446345E-13, -2.12536699E+04,
                       6.98052628E+00])))

species(name='CH2O',
        atoms='C:1 H:2 O:1',
        thermo=(NASA([10.00, 601.31],
                     [ 4.03190845E+00, -1.93233367E-03,  8.89743345E-06,
                       2.98105926E-09, -7.90813886E-12, -1.42276270E+04,
                       3.47574660E+00]),
                NASA([601.31, 3000.00],
                     [ 1.40134195E+00,  9.48858016E-03, -4.43088317E-06,
                       9.48452194E-10, -7.43790219E-14, -1.38013869E+04,
                       1.57423780E+01])))

species(name='O2',
        atoms='O:2',
        thermo=(NASA([10.00, 605.96],
                     [ 3.50743498E+00, -4.43860349E-04,  1.45938058E-06,
                       1.61509333E-09, -2.32050052E-12, -9.24756224E+02,
                       4.72183634E+00]),
                NASA([605.96, 3000.00],
                     [ 2.87462882E+00,  2.17840991E-03, -1.18262921E-06,
                       2.86910493E-10, -2.53297146E-14, -8.19517838E+02,
                       7.69331810E+00])))

species(name='gRO2',
        atoms='C:4 H:9 O:3',
        thermo=(NASA([10.00, 177.33],
                     [ 3.70632176E+00,  3.49733664E-02,  4.64036392E-04,
                      -3.18637835E-06,  6.38178607E-09, -2.73559171E+04,
                       1.24459269E+01]),
                NASA([177.33, 3000.00],
                     [ 4.82062697E+00,  5.17179689E-02, -3.18386818E-05,
                       9.52247045E-09, -1.10180288E-12, -2.74612877E+04,
                       7.14082953E+00])))

species(name='gQOOHg',
        atoms='C:4 H:9 O:3',
        thermo=(NASA([10.00, 475.03],
                     [ 3.42273720E+00,  4.98344215E-02,  6.47820920E-05,
                      -2.49842966E-07,  1.98636537E-10, -2.29417039E+04,
                       1.41578583E+01]),
                NASA([475.03, 3000.00],
                     [ 5.94049074E+00,  5.53778585E-02, -3.71708255E-05,
                       1.17540477E-08, -1.40812095E-12, -2.34826582E+04,
                       7.09201218E-01])))

species(name='gR',
        atoms='C:4 H:9 O:1',
        thermo=(NASA([10.00, 638.24],
                     [ 3.37074633E+00,  5.17529751E-02, -6.54872940E-05,
                       6.88084237E-08, -3.21569794E-11, -9.56102622E+03,
                       1.14339669E+01]),
                NASA([638.24, 3000.00],
                     [ 3.99410860E+00,  4.06314915E-02, -2.23932510E-05,
                       6.08356263E-09, -6.49884708E-13, -9.49365150E+03,
                       9.85769960E+00])))

species(name='galdol',
        atoms='C:4 H:8 O:2',
        thermo=(NASA([10.00, 506.68],
                     [ 3.85380874E+00,  9.21272695E-03,  1.86712348E-04,
                      -3.96417049E-07,  2.55528268E-10, -4.38211958E+04,
                       1.24312743E+01]),
                NASA([506.68, 3000.00],
                     [ 1.49710213E+00,  5.65979142E-02, -3.87709084E-05,
                       1.23682052E-08, -1.48287964E-12, -4.39518052E+04,
                       1.85531759E+01])))

species(name='monosub_c4ether',
        atoms='C:4 H:8 O:2',
        thermo=(NASA([10.00, 380.36],
                     [ 3.47743996E+00,  6.08051311E-02, -2.78518945E-04,
                       8.23182713E-07, -7.87158031E-10, -3.36842577E+04,
                       1.06415154E+01]),
                NASA([380.36, 3000.00],
                     [-1.09346901E+00,  5.35985968E-02, -3.21081420E-05,
                       9.20818293E-09, -1.01830294E-12, -3.29366976E+04,
                       3.35312368E+01])))

species(name='HO2',
        atoms='H:1 O:2',
        thermo=(NASA([10.00, 891.11],
                     [ 4.02887004E+00, -1.75769289E-03,  1.08726004E-05,
                      -1.13812972E-08,  3.90113097E-12,  4.95165001E+02,
                       4.69302008E+00]),
                NASA([891.11, 3000.00],
                     [ 3.06571044E+00,  4.28505005E-03, -2.19325920E-06,
                       5.58882699E-10, -5.61246669E-14,  5.98557610E+02,
                       8.84564156E+00])))

species(name='gQOOH[O]',
        atoms='C:4 H:9 O:3',
        thermo=(NASA([10.00, 535.23],
                     [ 3.83107445E+00,  1.02302002E-02,  2.29377261E-04,
                      -4.59095575E-07,  2.77765018E-10, -1.79112940E+04,
                       1.41034859E+01]),
                NASA([535.23, 3000.00],
                     [-4.19283096E-01,  7.69784620E-02, -5.57279000E-05,
                       1.81378295E-08, -2.18295635E-12, -1.79574073E+04,
                       2.72711816E+01])))

#-------------------------------------------------------------------------------
# Reaction data
#-------------------------------------------------------------------------------

# Reaction 1
chebyshev_reaction('gQOOH[O] (+ M) <=> gRO2 (+ M)',
                   Tmin=180.0, Tmax=1500.0,
                   Pmin=(0.01, 'atm'), Pmax=(98.692, 'atm'),
                   coeffs=[[ 9.11900e+00,  1.62700e+00, -2.22700e-01, -4.22100e-02,  6.78800e-03,  6.85000e-03,  3.93300e-04, -9.33700e-04],
                           [-1.17900e+00,  4.58800e-01,  1.14000e-01,  2.58200e-02, -1.34100e-02, -6.01000e-03,  9.06300e-04,  1.27500e-03],
                           [-8.44700e-01,  1.78800e-01,  2.22200e-02,  2.90300e-02,  4.18800e-03, -2.62100e-03, -1.82900e-03, -7.72800e-05],
                           [-4.34700e-01,  8.03800e-02, -1.88500e-02,  1.28400e-02,  5.17400e-03,  3.86500e-04, -8.36600e-04, -3.70700e-04],
                           [-1.59100e-01,  4.83500e-02, -2.76800e-02,  1.06400e-03,  1.96900e-03,  8.41100e-04,  1.06600e-04, -9.93100e-05],
                           [-2.83200e-02,  3.53100e-02, -2.25700e-02, -3.31200e-03,  8.05600e-05,  4.22300e-04,  2.89800e-04,  5.78300e-05],
                           [ 2.33200e-02,  1.71100e-02, -1.59900e-02, -2.25100e-03,  5.14200e-04, -3.45100e-06, -4.44400e-05,  3.39400e-05],
                           [ 1.33100e-02,  1.94200e-02, -6.68700e-03, -2.55300e-03,  3.56000e-05,  9.82600e-05,  4.54200e-05, -1.39100e-05],
                           [ 1.15800e-02,  5.98300e-03, -3.34000e-03, -7.42000e-04,  7.04500e-04,  1.06800e-06, -1.37300e-04, -3.33900e-05],
                           [-6.09300e-03,  1.06400e-02,  1.18700e-03, -1.46400e-03, -8.17200e-05,  1.35500e-04,  6.68100e-05, -1.80100e-05]])

# Reaction 2
chebyshev_reaction('gQOOHa (+ M) <=> gRO2 (+ M)',
                   Tmin=180.0, Tmax=1500.0,
                   Pmin=(0.01, 'atm'), Pmax=(98.692, 'atm'),
                   coeffs=[[ 3.30300e+00,  4.39000e-01, -1.35400e-01,  6.02000e-03,  4.93700e-03,  3.59300e-04, -3.42200e-04, -9.30000e-05],
                           [ 3.57800e+00,  7.37700e-01, -2.10600e-01,  1.34100e-04,  9.02700e-03,  1.54300e-03, -7.11500e-04, -2.34000e-04],
                           [ 6.42600e-01,  4.31600e-01, -8.70000e-02, -1.95800e-02,  5.38400e-03,  3.15400e-03, -5.44200e-04, -3.55900e-04],
                           [-1.49100e-01,  1.70600e-01,  1.13000e-03, -2.31200e-02, -7.75700e-04,  3.70700e-03,  1.04200e-04, -4.45300e-04],
                           [-1.48900e-01,  5.15400e-02,  2.00500e-02, -1.03300e-02, -5.32300e-03,  2.29500e-03,  9.03600e-04, -3.45000e-04],
                           [-4.94700e-02,  2.83900e-02,  5.21300e-03,  2.04600e-03, -5.22600e-03,  4.04900e-05,  1.17500e-03, -4.57600e-05],
                           [-1.45100e-02,  2.65700e-02, -5.27600e-03,  4.93800e-03, -2.23800e-03, -1.29400e-03,  7.49800e-04,  2.41400e-04],
                           [-1.24000e-02,  1.81800e-02, -4.41700e-03,  2.21000e-03,  2.19900e-04, -1.24900e-03,  1.20500e-04,  3.15500e-04],
                           [-1.03000e-02,  8.51300e-03, -8.30600e-04, -2.06000e-04,  9.35800e-04, -6.16900e-04, -2.22800e-04,  1.99000e-04],
                           [-5.19000e-03,  3.36500e-03,  6.23400e-04, -7.96200e-04,  6.94800e-04, -1.43800e-04, -2.40500e-04,  5.32300e-05]])

# Reaction 3
chebyshev_reaction('gQOOHg (+ M) <=> gRO2 (+ M)',
                   Tmin=180.0, Tmax=1500.0,
                   Pmin=(0.01, 'atm'), Pmax=(98.692, 'atm'),
                   coeffs=[[ 5.89300e+00,  1.87700e-01, -8.06500e-02,  1.73400e-02, -1.67700e-04, -7.15200e-04,  7.43900e-05,  3.38300e-05],
                           [ 2.28800e+00,  3.46900e-01, -1.45900e-01,  2.91700e-02,  8.47500e-04, -1.50400e-03,  1.13000e-04,  7.58000e-05],
                           [ 4.71800e-01,  2.75000e-01, -1.07800e-01,  1.62100e-02,  3.26500e-03, -1.49000e-03, -1.43000e-05,  9.62500e-05],
                           [-9.20500e-02,  1.88900e-01, -6.44200e-02,  3.08800e-03,  4.84400e-03, -1.06700e-03, -2.17300e-04,  1.08300e-04],
                           [-1.25900e-01,  1.14300e-01, -2.99800e-02, -4.96400e-03,  4.54200e-03, -2.80800e-04, -3.94700e-04,  8.47200e-05],
                           [-5.77000e-02,  6.23700e-02, -9.40200e-03, -7.24600e-03,  2.88400e-03,  4.78600e-04, -4.32200e-04,  1.98700e-05],
                           [-2.05500e-02,  3.15700e-02, -1.71300e-04, -5.99000e-03,  1.04400e-03,  8.65500e-04, -3.09100e-04, -5.79600e-05],
                           [-1.12800e-02,  1.53100e-02,  2.53400e-03, -3.70700e-03, -1.82700e-04,  8.29300e-04, -1.08500e-04, -1.08500e-04],
                           [-8.23800e-03,  7.28400e-03,  2.52700e-03, -1.82400e-03, -6.62200e-04,  5.49800e-04,  6.22300e-05, -1.11600e-04],
                           [-4.85900e-03,  3.41500e-03,  1.81200e-03, -6.93300e-04, -6.52300e-04,  2.43400e-04,  1.44700e-04, -7.67600e-05]])

# Reaction 4
chebyshev_reaction('gQOOHb (+ M) <=> gRO2 (+ M)',
                   Tmin=180.0, Tmax=1500.0,
                   Pmin=(0.01, 'atm'), Pmax=(98.692, 'atm'),
                   coeffs=[[ 2.23200e+00,  7.59400e-01, -9.18000e-02, -7.84900e-03, -1.53100e-04,  1.64800e-04, -7.86800e-05,  6.56700e-07],
                           [ 2.94100e+00,  1.20900e+00, -1.26100e-01, -1.03700e-02, -1.96400e-03, -4.46300e-05, -1.39200e-04,  1.84700e-05],
                           [ 6.80500e-01,  5.59700e-01, -2.18400e-02,  3.42000e-03, -4.00500e-03, -9.80000e-04, -1.87900e-04,  4.81200e-05],
                           [-1.73700e-02,  7.00800e-02,  2.50900e-02,  1.55800e-02, -1.91700e-03, -1.70200e-03, -4.23100e-04,  3.11800e-05],
                           [-1.05600e-01, -6.70400e-02,  6.10000e-03,  1.45700e-02,  3.24800e-03, -1.23400e-03, -6.64200e-04, -7.39900e-05],
                           [-7.28500e-02, -7.60100e-03, -2.05500e-02,  3.10300e-03,  5.94700e-03,  2.01900e-04, -5.48800e-04, -2.00400e-04],
                           [-4.31400e-02,  4.93500e-02, -2.23900e-02, -5.75200e-03,  3.98400e-03,  1.17800e-03, -8.33600e-05, -2.09500e-04],
                           [-2.15900e-02,  4.49700e-02, -9.80800e-03, -6.11500e-03,  5.85600e-04,  9.55600e-04,  2.77700e-04, -7.98800e-05],
                           [-6.11000e-03,  1.50700e-02,  4.31300e-04, -2.69400e-03, -9.75300e-04,  2.53200e-04,  2.50800e-04,  4.76200e-05],
                           [ 1.60200e-03, -4.30300e-03,  4.06500e-03, -6.93600e-04, -7.38100e-04, -7.64700e-05,  4.02300e-05,  6.37600e-05]])

# Reaction 5
chebyshev_reaction('O2 + gR (+ M) <=> gRO2 (+ M)',
                   Tmin=180.0, Tmax=1500.0,
                   Pmin=(0.01, 'atm'), Pmax=(98.692, 'atm'),
                   coeffs=[[ 9.81300e+00,  1.26800e-01, -5.19800e-02,  9.72400e-03, -4.16800e-05,  1.37700e-04, -2.17000e-04, -3.43200e-06],
                           [-7.32000e-01,  2.24000e-01, -8.70100e-02,  1.24800e-02,  2.09400e-03, -2.92400e-04, -3.06700e-04, -2.10900e-05],
                           [-2.90800e-01,  1.80100e-01, -6.55400e-02,  6.32400e-03,  2.87600e-03, -2.88400e-04, -2.69500e-04, -4.52900e-05],
                           [-1.44500e-01,  1.27800e-01, -4.13800e-02,  3.67400e-04,  3.20400e-03, -1.81100e-04, -2.14800e-04, -7.13700e-05],
                           [-7.87000e-02,  7.99700e-02, -2.07000e-02, -3.75300e-03,  3.01300e-03, -5.16900e-05, -1.46700e-04, -8.03700e-05],
                           [-4.30200e-02,  4.52000e-02, -7.65200e-03, -4.91500e-03,  2.15000e-03,  1.50000e-04, -1.04900e-04, -6.68300e-05],
                           [-2.28900e-02,  2.33900e-02, -1.21500e-03, -4.12800e-03,  1.09200e-03,  3.13100e-04, -7.52900e-05, -4.45300e-05],
                           [-1.13300e-02,  1.04300e-02,  1.58500e-03, -2.92700e-03,  3.56400e-04,  3.34400e-04, -3.68300e-05, -2.61100e-05],
                           [-5.14400e-03,  3.76000e-03,  2.14300e-03, -1.70500e-03, -1.03900e-04,  2.92900e-04, -8.89000e-06, -1.38400e-05],
                           [-2.00300e-03,  6.62200e-04,  1.86400e-03, -8.63200e-04, -2.56300e-04,  1.90900e-04,  1.96800e-05, -9.44900e-06]])
#  gRO2(+M) <=> gQOOH[O](+M)                           1.000e+00 0.000     0.000
#      TCHEB/ 180.000   1500.000 /
#      PCHEB/ 0.010     98.692   /
#      CHEB/ 10 8/
#      CHEB/ -4.127e+00   1.627e+00    -2.227e-01   -4.221e-02   6.788e-03   /
#      CHEB/ 6.850e-03    3.933e-04    -9.337e-04   8.584e+00    4.588e-01   /
#      CHEB/ 1.140e-01    2.582e-02    -1.341e-02   -6.010e-03   9.063e-04   /
#      CHEB/ 1.275e-03    -6.716e-01   1.788e-01    2.222e-02    2.903e-02   /
#      CHEB/ 4.188e-03    -2.621e-03   -1.829e-03   -7.728e-05   -3.099e-01  /
#      CHEB/ 8.038e-02    -1.885e-02   1.284e-02    5.174e-03    3.865e-04   /
#      CHEB/ -8.366e-04   -3.707e-04   -1.054e-01   4.835e-02    -2.768e-02  /
#      CHEB/ 1.064e-03    1.969e-03    8.411e-04    1.066e-04    -9.931e-05  /
#      CHEB/ -9.267e-03   3.531e-02    -2.257e-02   -3.312e-03   8.056e-05   /
#      CHEB/ 4.223e-04    2.898e-04    5.783e-05    2.954e-02    1.711e-02   /
#      CHEB/ -1.599e-02   -2.251e-03   5.142e-04    -3.451e-06   -4.444e-05  /
#      CHEB/ 3.394e-05    1.523e-02    1.942e-02    -6.687e-03   -2.553e-03  /
#      CHEB/ 3.560e-05    9.826e-05    4.542e-05    -1.391e-05   1.205e-02   /
#      CHEB/ 5.983e-03    -3.340e-03   -7.420e-04   7.045e-04    1.068e-06   /
#      CHEB/ -1.373e-04   -3.339e-05   -6.122e-03   1.064e-02    1.187e-03   /
#      CHEB/ -1.464e-03   -8.172e-05   1.355e-04    6.681e-05    -1.801e-05  /

# Reaction 6
chebyshev_reaction('gQOOHa (+ M) <=> gQOOH[O] (+ M)',
                   Tmin=180.0, Tmax=1500.0,
                   Pmin=(0.01, 'atm'), Pmax=(98.692, 'atm'),
                   coeffs=[[-7.12700e+00,  2.55400e-01, -3.85500e-01, -1.45900e-02,  2.54100e-03,  6.45800e-03,  1.24400e-03, -9.31700e-04],
                           [ 8.60400e+00,  1.13600e+00, -2.36900e-02,  5.55500e-03,  6.69400e-03, -7.05800e-03, -6.68500e-04,  1.19300e-03],
                           [-1.02200e-01,  4.48800e-01,  2.31900e-03, -1.58700e-02,  9.43100e-03,  4.40300e-03, -2.75200e-03, -6.43600e-04],
                           [-1.10700e-01,  1.75100e-01, -1.08500e-02, -1.70800e-02, -3.17600e-03,  6.18100e-03,  7.52100e-04, -9.58100e-04],
                           [-7.95700e-02,  8.45100e-02, -2.01300e-02, -7.89200e-03, -6.78900e-03,  1.49800e-03,  2.15600e-03, -1.61500e-04],
                           [-1.35000e-02,  4.92400e-02, -1.06400e-02, -1.29300e-03, -4.31000e-03, -1.60500e-03,  1.32000e-03,  4.27400e-04],
                           [ 2.58500e-02,  2.14300e-02, -1.49700e-03,  2.11600e-03, -6.89400e-04, -1.94100e-03,  1.24100e-04,  4.36300e-04],
                           [-1.57000e-03,  1.81800e-02,  4.06900e-03,  1.33300e-03,  1.88700e-04, -1.15300e-03, -1.85700e-04,  2.85500e-04],
                           [-1.52400e-02,  2.78300e-03,  2.02500e-03,  7.99100e-04,  1.36400e-03, -4.59600e-04, -4.36000e-04,  8.17800e-05],
                           [-2.43900e-02,  8.30700e-03,  2.21800e-03, -8.00100e-04,  4.14900e-04,  1.89000e-05, -1.91900e-04, -7.37700e-07]])

# Reaction 7
chebyshev_reaction('gQOOHg (+ M) <=> gQOOH[O] (+ M)',
                   Tmin=180.0, Tmax=1500.0,
                   Pmin=(0.01, 'atm'), Pmax=(98.692, 'atm'),
                   coeffs=[[-3.52000e+00, -9.82600e-02, -2.69700e-01, -2.60800e-02,  2.75700e-03,  5.57600e-03,  1.00600e-03, -6.43800e-04],
                           [ 5.99500e+00,  7.95500e-01, -9.65000e-03,  5.83900e-02, -6.83000e-03, -8.30600e-03, -2.77200e-04,  1.11000e-03],
                           [ 7.07100e-02,  3.96800e-01, -8.24200e-02,  3.15400e-02,  1.12700e-02, -2.53900e-03, -1.55700e-03, -2.60000e-04],
                           [-6.21300e-02,  2.11700e-01, -8.05600e-02, -3.09500e-03,  8.93400e-03,  9.40000e-04, -5.39800e-05, -1.65000e-04],
                           [-6.19000e-02,  1.16900e-01, -4.72400e-02, -1.50700e-02,  3.80400e-03,  1.24300e-03,  7.70300e-05,  1.22500e-04],
                           [-1.63000e-02,  7.02100e-02, -1.29800e-02, -1.31800e-02,  7.04100e-04,  9.81600e-04, -2.45100e-04,  6.18200e-05],
                           [ 1.50900e-02,  3.45700e-02,  4.12500e-03, -7.31900e-03,  8.85900e-05,  9.29600e-04, -3.68000e-04, -1.43600e-04],
                           [-9.25300e-03,  2.34300e-02,  1.04200e-02, -4.03600e-03, -1.15900e-03,  8.04200e-04,  4.76400e-05, -1.48500e-04],
                           [-1.75900e-02,  3.58700e-03,  6.05300e-03, -9.77800e-04, -5.97400e-04,  4.38000e-04,  1.05900e-04, -1.37300e-04],
                           [-2.36700e-02,  6.47200e-03,  4.50000e-03, -5.66500e-04, -1.16600e-03,  9.46600e-05,  3.14800e-04, -1.93400e-05]])

# Reaction 8
chebyshev_reaction('gQOOHb (+ M) <=> gQOOH[O] (+ M)',
                   Tmin=180.0, Tmax=1500.0,
                   Pmin=(0.01, 'atm'), Pmax=(98.692, 'atm'),
                   coeffs=[[-6.86300e+00,  6.78200e-01, -3.31900e-01, -3.41400e-02,  3.47700e-03,  4.90700e-03,  6.38800e-04, -5.89500e-04],
                           [ 6.35400e+00,  1.59000e+00,  6.47000e-02,  1.09800e-02, -5.78500e-03, -6.74500e-03, -1.29100e-03,  9.24300e-04],
                           [ 4.01300e-01,  3.98100e-01,  7.32000e-02,  1.44800e-02, -2.19500e-03, -4.46500e-05, -7.91900e-04, -5.13500e-04],
                           [ 3.78600e-02,  3.37600e-02, -1.74900e-02,  1.55800e-02,  9.44000e-04, -4.61900e-04,  4.50300e-04, -3.27100e-05],
                           [-6.70900e-02,  2.71200e-02, -5.39400e-02,  5.13100e-03,  6.90400e-03, -6.43300e-04, -6.66000e-04,  6.54600e-05],
                           [-4.08100e-02,  4.68900e-02, -2.92500e-02, -3.79600e-03,  5.70000e-03,  7.50800e-04, -7.11200e-04, -2.67100e-04],
                           [-9.73400e-04,  2.86900e-02, -5.06600e-03, -6.26000e-03,  2.49700e-03,  1.28600e-03, -4.86400e-05, -2.79900e-04],
                           [-1.00200e-02,  2.31900e-02,  4.66100e-03, -6.26500e-03, -6.72900e-04,  8.32700e-04,  4.67800e-04,  4.02900e-06],
                           [-1.24900e-02,  4.88700e-03,  2.94700e-03, -3.44800e-03, -6.54600e-04,  2.77300e-04,  2.03200e-04,  5.67000e-05],
                           [-1.54100e-02,  6.46000e-03,  3.80500e-03, -1.62500e-03, -1.20300e-03, -4.48300e-05,  1.49900e-04,  8.05000e-05]])

# Reaction 9
chebyshev_reaction('O2 + gR (+ M) <=> gQOOH[O] (+ M)',
                   Tmin=180.0, Tmax=1500.0,
                   Pmin=(0.01, 'atm'), Pmax=(98.692, 'atm'),
                   coeffs=[[ 3.31100e+00,  6.97000e-02, -1.15900e-01, -1.74700e-02, -8.04800e-03, -1.27700e-03,  5.13300e-05,  3.04800e-04],
                           [-5.28800e-01,  3.83100e-01, -3.56000e-02,  3.97600e-02,  1.21800e-02,  5.88100e-04, -1.19500e-03, -5.62900e-04],
                           [ 8.72800e-02,  2.12300e-01, -7.86900e-02,  2.79600e-03,  5.19000e-03,  9.25000e-04,  1.86100e-04,  6.48600e-05],
                           [ 6.26300e-02,  1.45700e-01, -4.99600e-02, -5.95400e-03,  3.03100e-03, -1.45500e-04, -2.05900e-04, -2.83200e-05],
                           [-6.43200e-02,  9.27000e-02, -1.97900e-02, -7.41100e-03,  3.06400e-03,  2.51600e-05, -2.64600e-04, -1.33800e-04],
                           [-4.45500e-02,  5.00800e-02, -3.76900e-03, -7.03100e-03,  2.16900e-03,  4.36800e-04, -1.30800e-04, -1.03900e-04],
                           [-3.45200e-03,  2.24200e-02,  2.15100e-03, -5.41600e-03,  8.12100e-04,  6.23800e-04, -2.97500e-05, -5.35200e-05],
                           [ 4.43300e-03,  8.87000e-03,  4.64400e-03, -3.23100e-03, -1.01700e-04,  4.95100e-04, -1.96000e-06, -3.19600e-05],
                           [-1.02700e-02,  3.44000e-04,  3.11400e-03, -1.85000e-03, -5.56800e-04,  4.04700e-04,  6.30800e-05, -9.99700e-06],
                           [-1.05100e-02,  1.77300e-05,  3.21600e-03, -3.81800e-04, -5.64900e-04,  1.55700e-04,  4.46000e-05, -1.32700e-05]])
#  gRO2(+M) <=> gQOOHa(+M)                             1.000e+00 0.000     0.000
#      TCHEB/ 180.000   1500.000 /
#      PCHEB/ 0.010     98.692   /
#      CHEB/ 10 8/
#      CHEB/ 1.134e+00    4.390e-01    -1.354e-01   6.020e-03    4.937e-03   /
#      CHEB/ 3.593e-04    -3.422e-04   -9.300e-05   5.260e+00    7.377e-01   /
#      CHEB/ -2.106e-01   1.341e-04    9.027e-03    1.543e-03    -7.115e-04  /
#      CHEB/ -2.340e-04   8.043e-01    4.316e-01    -8.700e-02   -1.958e-02  /
#      CHEB/ 5.384e-03    3.154e-03    -5.442e-04   -3.559e-04   -7.489e-02  /
#      CHEB/ 1.706e-01    1.130e-03    -2.312e-02   -7.757e-04   3.707e-03   /
#      CHEB/ 1.042e-04    -4.453e-04   -1.204e-01   5.154e-02    2.005e-02   /
#      CHEB/ -1.033e-02   -5.323e-03   2.295e-03    9.036e-04    -3.450e-04  /
#      CHEB/ -3.967e-02   2.839e-02    5.213e-03    2.046e-03    -5.226e-03  /
#      CHEB/ 4.049e-05    1.175e-03    -4.576e-05   -1.160e-02   2.657e-02   /
#      CHEB/ -5.276e-03   4.938e-03    -2.238e-03   -1.294e-03   7.498e-04   /
#      CHEB/ 2.414e-04    -1.177e-02   1.818e-02    -4.417e-03   2.210e-03   /
#      CHEB/ 2.199e-04    -1.249e-03   1.205e-04    3.155e-04    -1.031e-02  /
#      CHEB/ 8.513e-03    -8.306e-04   -2.060e-04   9.358e-04    -6.169e-04  /
#      CHEB/ -2.228e-04   1.990e-04    -5.308e-03   3.365e-03    6.234e-04   /
#      CHEB/ -7.962e-04   6.948e-04    -1.438e-04   -2.405e-04   5.323e-05   /
#  gQOOH[O](+M) <=> gQOOHa(+M)                         1.000e+00 0.000     0.000
#      TCHEB/ 180.000   1500.000 /
#      PCHEB/ 0.010     98.692   /
#      CHEB/ 10 8/
#      CHEB/ 3.950e+00    2.554e-01    -3.855e-01   -1.459e-02   2.541e-03   /
#      CHEB/ 6.458e-03    1.244e-03    -9.317e-04   5.232e-01    1.136e+00   /
#      CHEB/ -2.369e-02   5.555e-03    6.694e-03    -7.058e-03   -6.685e-04  /
#      CHEB/ 1.193e-03    -1.136e-01   4.488e-01    2.319e-03    -1.587e-02  /
#      CHEB/ 9.431e-03    4.403e-03    -2.752e-03   -6.436e-04   -1.613e-01  /
#      CHEB/ 1.751e-01    -1.085e-02   -1.708e-02   -3.176e-03   6.181e-03   /
#      CHEB/ 7.521e-04    -9.581e-04   -1.047e-01   8.451e-02    -2.013e-02  /
#      CHEB/ -7.892e-03   -6.789e-03   1.498e-03    2.156e-03    -1.615e-04  /
#      CHEB/ -2.276e-02   4.924e-02    -1.064e-02   -1.293e-03   -4.310e-03  /
#      CHEB/ -1.605e-03   1.320e-03    4.274e-04    2.254e-02    2.143e-02   /
#      CHEB/ -1.497e-03   2.116e-03    -6.894e-04   -1.941e-03   1.241e-04   /
#      CHEB/ 4.363e-04    -2.857e-03   1.818e-02    4.069e-03    1.333e-03   /
#      CHEB/ 1.887e-04    -1.153e-03   -1.857e-04   2.855e-04    -1.570e-02  /
#      CHEB/ 2.783e-03    2.025e-03    7.991e-04    1.364e-03    -4.596e-04  /