units(length='cm', time='s', quantity='mol', act_energy='kcal/mol')

ideal_gas(name='gas',
          elements="H D T C Ci O Oi N Ne Ar He Si S F Cl Br I X",
          species="""propene3ol       OH               disub_c4ether
                     H2O              disub_epoxy      gQOOHa
                     propene1ol       gQOOHb           ipropylOOH
                     galdoxy          galkene          CH2O
                     O2               gRO2             gQOOHg
                     gR               galdol           monosub_c4ether
                     HO2              gQOOH[O]""",
          reactions='all',
          initial_state=state(temperature=300.0, pressure=OneAtm))

#-------------------------------------------------------------------------------
# Element data
#-------------------------------------------------------------------------------

element(symbol='Ci', atomic_mass=13.003)
element(symbol='D', atomic_mass=2.014)
element(symbol='Oi', atomic_mass=18.0)
element(symbol='T', atomic_mass=3.016)
element(symbol='X', atomic_mass=195.083)
#-------------------------------------------------------------------------------
# Species data
#-------------------------------------------------------------------------------

species(name='propene3ol',
        atoms='C:3 H:6 O:1',
        thermo=(NASA([10.00, 444.81],
                     [ 3.92769709E+00,  4.89977303E-03,  1.13094874E-04,
                      -2.59008187E-07,  1.86205760E-10, -1.47444704E+04,
                       9.90805416E+00]),
                NASA([444.81, 3000.00],
                     [ 2.61720343E+00,  3.01777872E-02, -1.76511625E-05,
                       5.14864061E-09, -5.91153761E-13, -1.47613709E+04,
                       1.36683107E+01])))

species(name='OH',
        atoms='H:1 O:1',
        thermo=(NASA([10.00, 984.14],
                     [ 3.49686242E+00,  1.83973160E-04, -9.97634499E-07,
                       1.56942783E-09, -6.10128175E-13,  3.41673934E+03,
                       1.48093120E+00]),
                NASA([984.14, 3000.00],
                     [ 3.45221464E+00, -2.95124034E-04,  7.39418622E-07,
                      -2.89309866E-10,  3.53041498E-14,  3.45751599E+03,
                       1.85813897E+00])))

species(name='disub_c4ether',
        atoms='C:4 H:8 O:2',
        thermo=(NASA([10.00, 413.50],
                     [ 3.78241323E+00,  1.89501763E-02,  8.65302396E-05,
                      -1.80580575E-07,  1.13656264E-10, -3.80096770E+04,
                       1.09982450E+01]),
                NASA([413.50, 3000.00],
                     [ 4.29420885E-01,  5.13851903E-02, -3.11292293E-05,
                       9.11498284E-09, -1.03192718E-12, -3.77323827E+04,
                       2.42134976E+01])))

species(name='H2O',
        atoms='H:2 O:1',
        thermo=(NASA([10.00, 773.84],
                     [ 4.00473541E+00, -2.39729134E-04,  8.11862955E-07,
                       1.47891862E-09, -1.19783539E-12, -3.03533807E+04,
                      -9.96254147E-02]),
                NASA([773.84, 3000.00],
                     [ 3.52133374E+00,  1.05377009E-03,  6.40722099E-07,
                      -3.86240235E-10,  5.49243294E-14, -3.02424794E+04,
                       2.34173094E+00])))

species(name='disub_epoxy',
        atoms='C:4 H:8 O:2',
        thermo=(NASA([10.00, 549.41],
                     [ 3.89863211E+00,  5.97532637E-03,  1.66685676E-04,
                      -3.10743768E-07,  1.78330192E-10, -3.56137423E+04,
                       1.13847308E+01]),
                NASA([549.41, 3000.00],
                     [-6.40277648E-01,  6.05960003E-02, -4.13427220E-05,
                       1.31555461E-08, -1.57685017E-12, -3.54406254E+04,
                       2.76005436E+01])))

species(name='gQOOHa',
        atoms='C:4 H:9 O:3',
        thermo=(NASA([10.00, 160.74],
                     [ 3.80808147E+00,  2.31043884E-02,  5.26945984E-04,
                      -3.11500696E-06,  6.03881958E-09, -2.36876884E+04,
                       1.17645316E+01]),
                NASA([160.74, 3000.00],
                     [ 2.90630300E+00,  6.50241173E-02, -4.60073244E-05,
                       1.51330930E-08, -1.87074267E-12, -2.36838638E+04,
                       1.36838819E+01])))

species(name='propene1ol',
        atoms='C:3 H:6 O:1',
        thermo=(NASA([10.00, 459.42],
                     [ 3.91245344E+00,  5.85800161E-03,  1.15412006E-04,
                      -2.68014417E-07,  1.91800131E-10, -2.00880493E+04,
                       8.14807684E+00]),
                NASA([459.42, 3000.00],
                     [ 3.14049093E+00,  2.95550898E-02, -1.73843684E-05,
                       5.11506211E-09, -5.92966137E-13, -2.01962718E+04,
                       9.32215170E+00])))

species(name='gQOOHb',
        atoms='C:4 H:9 O:3',
        thermo=(NASA([10.00, 1018.67],
                     [ 3.99028351E+00,  4.29665712E-02,  2.28338778E-05,
                      -5.67914439E-08,  2.29383258E-11, -2.34699021E+04,
                       1.20326731E+01]),
                NASA([1018.67, 3000.00],
                     [ 1.38304153E+01,  3.88527019E-02, -2.19473905E-05,
                       5.78719895E-09, -5.85097740E-13, -2.72659869E+04,
                      -4.44147388E+01])))

species(name='ipropylOOH',
        atoms='C:3 H:7 O:2',
        thermo=(NASA([10.00, 405.01],
                     [ 3.30075623E+00,  7.58672756E-02, -3.35754269E-04,
                       8.05972164E-07, -6.68864582E-10, -7.93530251E+02,
                       1.43372849E+01]),
                NASA([405.01, 3000.00],
                     [ 2.51742509E+00,  3.72760950E-02, -2.12450220E-05,
                       5.83593926E-09, -6.22110649E-13, -3.50122644E+02,
                       2.20991392E+01])))

species(name='galdoxy',
        atoms='C:4 H:7 O:2',
        thermo=(NASA([10.00, 209.62],
                     [ 3.82641108E+00,  1.84758886E-02,  3.43073800E-04,
                      -1.82817005E-06,  2.98516720E-09, -2.03612576E+04,
                       1.17972706E+01]),
                NASA([209.62, 3000.00],
                     [ 4.22049016E+00,  4.03370149E-02, -2.36129482E-05,
                       6.72979114E-09, -7.47862493E-13, -2.04423274E+04,
                       8.97211724E+00])))

species(name='galkene',
        atoms='C:4 H:8 O:1',
        thermo=(NASA([10.00, 383.47],
                     [ 3.84035604E+00,  1.20378740E-02,  1.87486319E-04,
                      -5.44759148E-07,  4.80711015E-10, -1.92320210E+04,
                       1.02570291E+01]),
                NASA([383.47, 3000.00],
                     [ 4.00413385E+00,  3.79025144E-02, -2.15435710E-05,
                       6.15213311E-09, -6.97446345E-13, -1.94473104E+04,
                       6.98052628E+00])))

species(name='CH2O',
        atoms='C:1 H:2 O:1',
        thermo=(NASA([10.00, 601.31],
                     [ 4.03190845E+00, -1.93233367E-03,  8.89743345E-06,
                       2.98105926E-09, -7.90813886E-12, -1.42276270E+04,
                       3.47574660E+00]),
                NASA([601.31, 3000.00],
                     [ 1.40134195E+00,  9.48858016E-03, -4.43088317E-06,
                       9.48452194E-10, -7.43790219E-14, -1.38013869E+04,
                       1.57423780E+01])))

species(name='O2',
        atoms='O:2',
        thermo=(NASA([10.00, 605.96],
                     [ 3.50743498E+00, -4.43860349E-04,  1.45938058E-06,
                       1.61509333E-09, -2.32050052E-12, -9.24756224E+02,
                       4.72183634E+00]),
                NASA([605.96, 3000.00],
                     [ 2.87462882E+00,  2.17840991E-03, -1.18262921E-06,
                       2.86910493E-10, -2.53297146E-14, -8.19517838E+02,
                       7.69331810E+00])))

species(name='gRO2',
        atoms='C:4 H:9 O:3',
        thermo=(NASA([10.00, 177.33],
                     [ 3.70632176E+00,  3.49733664E-02,  4.64036392E-04,
                      -3.18637835E-06,  6.38178607E-09, -2.90792231E+04,
                       1.24459269E+01]),
                NASA([177.33, 3000.00],
                     [ 4.82062697E+00,  5.17179689E-02, -3.18386818E-05,
                       9.52247045E-09, -1.10180288E-12, -2.91845937E+04,
                       7.14082953E+00])))

species(name='gQOOHg',
        atoms='C:4 H:9 O:3',
        thermo=(NASA([10.00, 475.03],
                     [ 3.42273720E+00,  4.98344215E-02,  6.47820920E-05,
                      -2.49842966E-07,  1.98636537E-10, -2.17974092E+04,
                       1.41578583E+01]),
                NASA([475.03, 3000.00],
                     [ 5.94049074E+00,  5.53778585E-02, -3.71708255E-05,
                       1.17540477E-08, -1.40812095E-12, -2.23383635E+04,
                       7.09201218E-01])))

species(name='gR',
        atoms='C:4 H:9 O:1',
        thermo=(NASA([10.00, 638.24],
                     [ 3.37074633E+00,  5.17529751E-02, -6.54872940E-05,
                       6.88084237E-08, -3.21569794E-11, -9.93013200E+03,
                       1.14339669E+01]),
                NASA([638.24, 3000.00],
                     [ 3.99410860E+00,  4.06314915E-02, -2.23932510E-05,
                       6.08356263E-09, -6.49884708E-13, -9.86275728E+03,
                       9.85769960E+00])))

species(name='galdol',
        atoms='C:4 H:8 O:2',
        thermo=(NASA([10.00, 506.68],
                     [ 3.85380874E+00,  9.21272695E-03,  1.86712348E-04,
                      -3.96417049E-07,  2.55528268E-10, -4.62183016E+04,
                       1.24312743E+01]),
                NASA([506.68, 3000.00],
                     [ 1.49710213E+00,  5.65979142E-02, -3.87709084E-05,
                       1.23682052E-08, -1.48287964E-12, -4.63489110E+04,
                       1.85531759E+01])))

species(name='monosub_c4ether',
        atoms='C:4 H:8 O:2',
        thermo=(NASA([10.00, 380.36],
                     [ 3.47743996E+00,  6.08051311E-02, -2.78518945E-04,
                       8.23182713E-07, -7.87158031E-10, -3.22973129E+04,
                       1.06415154E+01]),
                NASA([380.36, 3000.00],
                     [-1.09346901E+00,  5.35985968E-02, -3.21081420E-05,
                       9.20818293E-09, -1.01830294E-12, -3.15497528E+04,
                       3.35312368E+01])))

species(name='HO2',
        atoms='H:1 O:2',
        thermo=(NASA([10.00, 891.11],
                     [ 4.02887004E+00, -1.75769289E-03,  1.08726004E-05,
                      -1.13812972E-08,  3.90113097E-12,  4.95165001E+02,
                       4.69302008E+00]),
                NASA([891.11, 3000.00],
                     [ 3.06571044E+00,  4.28505005E-03, -2.19325920E-06,
                       5.58882699E-10, -5.61246669E-14,  5.98557610E+02,
                       8.84564156E+00])))

species(name='gQOOH[O]',
        atoms='C:4 H:9 O:3',
        thermo=(NASA([10.00, 535.23],
                     [ 3.83107445E+00,  1.02302002E-02,  2.29377261E-04,
                      -4.59095575E-07,  2.77765018E-10, -2.12367406E+04,
                       1.41034859E+01]),
                NASA([535.23, 3000.00],
                     [-4.19283096E-01,  7.69784620E-02, -5.57279000E-05,
                       1.81378295E-08, -2.18295635E-12, -2.12828540E+04,
                       2.72711816E+01])))

#-------------------------------------------------------------------------------
# Reaction data
#-------------------------------------------------------------------------------

# Reaction 1
chebyshev_reaction('gQOOH[O] (+ M) <=> gRO2 (+ M)',
                   Tmin=180.0, Tmax=1500.0,
                   Pmin=(0.01, 'atm'), Pmax=(98.692, 'atm'),
                   coeffs=[[ 4.50800e+00,  4.48100e-01, -5.27000e-02, -3.65800e-03, -6.27000e-04,  2.69100e-04, -6.30400e-05,  1.50200e-05],
                           [ 3.00400e+00,  8.02200e-01, -8.40100e-02, -8.89500e-03, -8.81100e-04,  2.99600e-04, -6.59400e-05,  1.93900e-05],
                           [-9.79100e-02,  5.72600e-01, -3.72700e-02, -1.03300e-02, -4.59300e-04, -1.49400e-04,  3.37200e-05,  3.06500e-06],
                           [-5.83200e-01,  3.19800e-01,  1.55300e-03, -7.04300e-03, -7.20500e-04, -4.27600e-04,  5.68800e-05, -2.75700e-08],
                           [-3.00800e-01,  1.32400e-01,  1.48600e-02, -2.24200e-04, -1.05000e-03, -4.95300e-04, -1.76600e-06,  3.80600e-06],
                           [-9.59100e-02,  3.36800e-02,  8.97200e-03,  4.88500e-03, -5.51600e-04, -4.56800e-04, -7.82400e-05, -6.96800e-07],
                           [-3.16000e-02, -5.93200e-04, -8.65000e-04,  5.36900e-03,  5.09900e-04, -2.97200e-04, -1.24300e-04, -1.57900e-05],
                           [-1.17600e-02, -4.91300e-03, -5.66100e-03,  2.76800e-03,  1.15400e-03, -1.66600e-05, -1.17200e-04, -3.18600e-05],
                           [-1.56100e-03, -1.65200e-03, -5.20100e-03,  1.28700e-04,  9.61100e-04,  2.30500e-04, -5.76200e-05, -3.71300e-05],
                           [ 1.32400e-03,  8.23000e-04, -2.82000e-03, -1.00800e-03,  3.50700e-04,  2.87900e-04,  1.71100e-05, -2.60200e-05]])

# Reaction 2
chebyshev_reaction('gQOOHa (+ M) <=> gRO2 (+ M)',
                   Tmin=180.0, Tmax=1500.0,
                   Pmin=(0.01, 'atm'), Pmax=(98.692, 'atm'),
                   coeffs=[[ 7.40100e+00,  4.84600e-01, -1.26600e-01,  2.05500e-03,  1.88700e-03,  1.27400e-03, -1.85400e-04, -6.10400e-05],
                           [ 9.14800e-01,  8.05600e-01, -1.85200e-01, -1.10300e-02,  5.68000e-03,  1.87200e-03, -1.03800e-05, -1.96900e-04],
                           [ 6.91200e-04,  4.77500e-01, -6.72000e-02, -2.52800e-02,  2.74400e-03,  2.25900e-03,  2.81000e-04, -2.04900e-04],
                           [-1.69100e-01,  1.98600e-01,  9.49900e-03, -2.06900e-02, -3.64200e-03,  2.34600e-03,  6.54500e-04, -1.49400e-04],
                           [-1.11200e-01,  5.71400e-02,  2.52900e-02, -5.91900e-03, -6.89000e-03,  8.87800e-04,  9.75100e-04,  7.89600e-06],
                           [-4.73100e-02,  1.74900e-02,  1.20100e-02,  4.08400e-03, -4.97600e-03, -9.93800e-04,  8.24500e-04,  2.24600e-04],
                           [-2.19900e-02,  1.54300e-02, -6.09800e-04,  5.51200e-03, -1.29500e-03, -1.71300e-03,  2.53200e-04,  3.29800e-04],
                           [-1.53300e-02,  1.56500e-02, -4.32600e-03,  2.85300e-03,  9.32700e-04, -1.20900e-03, -2.47300e-04,  2.40000e-04],
                           [-1.13400e-02,  1.17200e-02, -3.11000e-03,  4.87600e-04,  1.26800e-03, -3.96600e-04, -3.84400e-04,  6.36000e-05],
                           [-6.96700e-03,  6.69900e-03, -1.17800e-03, -4.88700e-04,  7.96500e-04,  8.12200e-05, -2.61800e-04, -5.45800e-05]])

# Reaction 3
chebyshev_reaction('gQOOHg (+ M) <=> gRO2 (+ M)',
                   Tmin=180.0, Tmax=1500.0,
                   Pmin=(0.01, 'atm'), Pmax=(98.692, 'atm'),
                   coeffs=[[ 5.47300e+00,  2.77300e-01, -1.00800e-01,  1.60300e-02,  6.65500e-04, -6.25700e-04,  3.29900e-06,  7.26000e-05],
                           [ 2.99700e+00,  4.99700e-01, -1.73900e-01,  2.31100e-02,  3.02200e-03, -1.32200e-03, -4.07300e-05,  1.49600e-04],
                           [ 1.70400e-01,  3.68800e-01, -1.10600e-01,  4.45400e-03,  5.68600e-03, -1.08600e-03, -2.09800e-04,  1.53100e-04],
                           [-2.67000e-01,  2.28000e-01, -4.88500e-02, -9.66100e-03,  5.81000e-03, -1.71800e-04, -4.14800e-04,  1.16700e-04],
                           [-1.26900e-01,  1.22600e-01, -1.05700e-02, -1.32000e-02,  3.16400e-03,  8.92700e-04, -4.45400e-04,  1.93600e-05],
                           [-4.74200e-02,  6.03100e-02,  4.62300e-03, -9.63400e-03,  8.35000e-05,  1.34200e-03, -2.26300e-04, -9.21800e-05],
                           [-3.04600e-02,  2.88800e-02,  6.95900e-03, -4.64700e-03, -1.61000e-03,  1.04500e-03,  7.95600e-05, -1.42600e-04],
                           [-1.96700e-02,  1.43200e-02,  4.94900e-03, -1.22400e-03, -1.80400e-03,  4.43100e-04,  2.64300e-04, -1.08000e-04],
                           [-1.06200e-02,  7.52300e-03,  2.70300e-03,  2.84600e-04, -1.24200e-03, -3.42300e-05,  2.68200e-04, -3.16900e-05],
                           [-6.04900e-03,  4.02900e-03,  1.30600e-03,  6.07400e-04, -5.95100e-04, -2.40800e-04,  1.65300e-04,  2.97800e-05]])

# Reaction 4
chebyshev_reaction('gQOOHb (+ M) <=> gRO2 (+ M)',
                   Tmin=180.0, Tmax=1500.0,
                   Pmin=(0.01, 'atm'), Pmax=(98.692, 'atm'),
                   coeffs=[[ 3.90600e+00,  5.39300e-01, -9.01700e-02, -4.16500e-03,  4.76500e-04,  1.61300e-04,  2.23700e-05,  1.87600e-05],
                           [ 2.97700e+00,  9.37700e-01, -1.41200e-01, -1.05500e-02, -5.07100e-05,  4.49200e-04,  6.68200e-05,  2.95400e-05],
                           [ 4.78200e-01,  6.05300e-01, -5.58800e-02, -1.29500e-02, -2.35200e-03,  5.46400e-04,  1.30300e-04,  1.98100e-05],
                           [-2.60700e-01,  2.70400e-01,  1.32300e-02, -9.25400e-03, -4.14300e-03,  1.63200e-04,  1.90500e-04,  3.27200e-05],
                           [-2.37200e-01,  6.57100e-02,  3.27800e-02, -5.34500e-04, -3.76600e-03, -6.32200e-04,  1.48200e-04,  6.63700e-05],
                           [-8.71300e-02, -2.07000e-03,  1.70800e-02,  6.07300e-03, -1.32800e-03, -1.19200e-03, -3.99800e-05,  8.14800e-05],
                           [-1.52900e-02, -1.16000e-03, -2.19300e-03,  6.31500e-03,  1.26600e-03, -1.00200e-03, -2.58700e-04,  4.15000e-05],
                           [-5.47300e-03,  8.98600e-03, -8.88300e-03,  2.56600e-03,  2.24400e-03, -2.66900e-04, -3.25900e-04, -3.66000e-05],
                           [-8.34900e-03,  9.75100e-03, -6.21800e-03, -6.33700e-04,  1.56900e-03,  3.60900e-04, -1.95300e-04, -9.06200e-05],
                           [-6.50100e-03,  5.97900e-03, -2.30900e-03, -1.49800e-03,  4.57400e-04,  4.95700e-04, -3.03800e-06, -7.96200e-05]])

# Reaction 5
chebyshev_reaction('O2 + gR (+ M) <=> gRO2 (+ M)',
                   Tmin=180.0, Tmax=1500.0,
                   Pmin=(0.01, 'atm'), Pmax=(98.692, 'atm'),
                   coeffs=[[ 1.23000e+01,  2.07500e-01, -7.33500e-02,  1.18100e-02, -1.10200e-03,  6.05800e-04, -1.68800e-04, -8.14800e-06],
                           [-8.31100e-01,  3.43200e-01, -1.08600e-01,  9.15800e-03,  2.25300e-03, -6.16000e-05, -8.12500e-06, -7.76300e-05],
                           [-3.38100e-01,  2.21400e-01, -5.25200e-02, -6.49000e-03,  4.87900e-03, -3.56700e-04, -6.91600e-06, -3.92000e-05],
                           [-1.57100e-01,  1.22900e-01, -1.61800e-02, -1.08800e-02,  3.39700e-03,  2.71200e-04, -1.08400e-04, -1.41100e-05],
                           [-8.10100e-02,  6.79500e-02, -3.73600e-03, -7.19100e-03,  6.96300e-04,  6.88500e-04, -5.65600e-05, -3.17900e-05],
                           [-4.58700e-02,  4.07600e-02, -1.68700e-03, -3.10100e-03, -5.95700e-04,  5.06500e-04,  7.49200e-05, -3.88200e-05],
                           [-2.69800e-02,  2.45200e-02, -5.66100e-04, -1.50900e-03, -5.32900e-04,  1.61100e-04,  1.18100e-04, -1.28700e-05],
                           [-1.53200e-02,  1.31600e-02,  1.00900e-03, -1.28300e-03, -2.00200e-04,  7.02000e-06,  6.81800e-05,  1.45700e-05],
                           [-8.30300e-03,  6.22400e-03,  1.71700e-03, -1.01500e-03, -1.16000e-04,  1.40400e-05,  1.62000e-05,  1.82000e-05],
                           [-4.49700e-03,  2.87600e-03,  1.40100e-03, -5.31700e-04, -1.55500e-04,  2.89500e-05,  4.61500e-06,  7.48100e-06]])
#  gRO2(+M) <=> gQOOH[O](+M)                           1.000e+00 0.000     0.000
#      TCHEB/ 180.000   1500.000 /
#      PCHEB/ 0.010     98.692   /
#      CHEB/ 10 8/
#      CHEB/ -6.574e+00   4.481e-01    -5.270e-02   -3.658e-03   -6.270e-04  /
#      CHEB/ 2.691e-04    -6.304e-05   1.502e-05    1.107e+01    8.022e-01   /
#      CHEB/ -8.401e-02   -8.895e-03   -8.811e-04   2.996e-04    -6.594e-05  /
#      CHEB/ 1.939e-05    7.513e-02    5.726e-01    -3.727e-02   -1.033e-02  /
#      CHEB/ -4.593e-04   -1.494e-04   3.372e-05    3.065e-06    -4.584e-01  /
#      CHEB/ 3.198e-01    1.553e-03    -7.043e-03   -7.205e-04   -4.276e-04  /
#      CHEB/ 5.688e-05    -2.757e-08   -2.472e-01   1.324e-01    1.486e-02   /
#      CHEB/ -2.242e-04   -1.050e-03   -4.953e-04   -1.766e-06   3.806e-06   /
#      CHEB/ -7.686e-02   3.368e-02    8.972e-03    4.885e-03    -5.516e-04  /
#      CHEB/ -4.568e-04   -7.824e-05   -6.968e-07   -2.539e-02   -5.932e-04  /
#      CHEB/ -8.650e-04   5.369e-03    5.099e-04    -2.972e-04   -1.243e-04  /
#      CHEB/ -1.579e-05   -9.837e-03   -4.913e-03   -5.661e-03   2.768e-03   /
#      CHEB/ 1.154e-03    -1.666e-05   -1.172e-04   -3.186e-05   -1.099e-03  /
#      CHEB/ -1.652e-03   -5.201e-03   1.287e-04    9.611e-04    2.305e-04   /
#      CHEB/ -5.762e-05   -3.713e-05   1.295e-03    8.230e-04    -2.820e-03  /
#      CHEB/ -1.008e-03   3.507e-04    2.879e-04    1.711e-05    -2.602e-05  /

# Reaction 6
chebyshev_reaction('gQOOHa (+ M) <=> gQOOH[O] (+ M)',
                   Tmin=180.0, Tmax=1500.0,
                   Pmin=(0.01, 'atm'), Pmax=(98.692, 'atm'),
                   coeffs=[[-3.52200e+00, -7.67500e-01, -2.54100e-01,  1.14900e-02,  1.60600e-03, -5.40100e-05,  7.49600e-05,  2.42200e-05],
                           [ 6.91600e+00,  1.73100e+00, -2.05100e-01, -5.12400e-02,  1.03500e-02,  1.97100e-03, -6.58900e-04,  3.93400e-05],
                           [-2.74300e-01,  8.29300e-01,  3.00500e-02, -4.79900e-02, -8.12100e-03,  5.42700e-03,  3.92700e-04, -5.45900e-04],
                           [-5.97600e-01,  3.45600e-01,  4.93900e-02, -4.03000e-03, -1.26600e-02, -1.73700e-04,  2.07200e-03, -1.65300e-04],
                           [-1.91200e-01,  1.13400e-01,  2.31700e-02,  1.20000e-02, -4.13400e-03, -3.43300e-03,  8.63400e-04,  5.71600e-04],
                           [-1.38400e-02,  1.02200e-02,  7.14500e-03,  9.31000e-03,  1.16100e-03, -1.85000e-03, -5.77200e-04,  4.39600e-04],
                           [ 1.67200e-02, -9.74200e-03, -3.96900e-03,  4.64000e-03,  1.81400e-03, -9.14200e-05, -6.03600e-04, -4.06600e-06],
                           [ 1.20400e-02, -3.04500e-03, -6.44500e-03,  6.50900e-04,  1.17500e-03,  3.78100e-04, -1.52100e-04, -1.32000e-04],
                           [ 7.12700e-03,  2.70100e-03, -3.58900e-03, -1.30100e-03,  4.11500e-04,  2.53600e-04,  5.91700e-05, -4.48400e-05],
                           [ 1.65600e-03,  3.76400e-03, -6.07700e-04, -1.38800e-03, -2.86300e-05,  5.65400e-05,  4.00500e-05,  2.64100e-05]])

# Reaction 7
chebyshev_reaction('gQOOHg (+ M) <=> gQOOH[O] (+ M)',
                   Tmin=180.0, Tmax=1500.0,
                   Pmin=(0.01, 'atm'), Pmax=(98.692, 'atm'),
                   coeffs=[[-3.28200e+00, -1.08900e+00, -1.69200e-01,  1.25800e-02, -1.19500e-03, -6.48100e-06, -1.27500e-04,  9.18900e-05],
                           [ 6.82800e+00,  1.51500e+00, -2.38000e-01,  2.01800e-03,  3.52800e-03, -1.52200e-03,  2.84400e-05,  1.47800e-04],
                           [-3.08400e-01,  8.99300e-01, -7.75600e-02, -1.76800e-02,  5.18200e-03, -1.36500e-03, -1.55800e-04,  1.58200e-04],
                           [-5.02400e-01,  3.70300e-01,  1.34700e-02, -1.30100e-02,  1.65000e-03, -2.07800e-04, -3.84500e-04,  8.68900e-05],
                           [-1.45800e-01,  9.55600e-02,  2.21000e-02,  3.12900e-05, -5.42700e-04,  3.92000e-04, -3.62200e-04, -4.43600e-05],
                           [-3.87300e-03,  1.09700e-02,  4.39000e-03,  3.58100e-03,  2.85200e-04,  6.15300e-04, -2.38600e-04, -1.31200e-04],
                           [ 1.82600e-02,  1.15600e-03, -2.81600e-03, -9.68700e-04,  1.04300e-03,  8.69500e-04, -5.03300e-05, -1.52600e-04],
                           [ 6.74900e-03,  6.85100e-03, -1.59900e-03, -3.52900e-03, -9.59300e-05,  9.30900e-04,  1.87400e-04, -1.15900e-04],
                           [-7.79000e-04,  8.17000e-03,  1.38100e-03, -2.80500e-03, -1.14900e-03,  4.41300e-04,  3.31600e-04, -2.44500e-05],
                           [-7.44300e-04,  5.47600e-03,  2.78700e-03, -1.24100e-03, -1.04300e-03, -1.64200e-04,  2.64500e-04,  6.11200e-05]])

# Reaction 8
chebyshev_reaction('gQOOHb (+ M) <=> gQOOH[O] (+ M)',
                   Tmin=180.0, Tmax=1500.0,
                   Pmin=(0.01, 'atm'), Pmax=(98.692, 'atm'),
                   coeffs=[[-5.94400e+00, -7.42200e-01, -1.73600e-01, -4.41800e-03, -9.78900e-04,  1.34500e-04,  3.31800e-05,  2.10000e-05],
                           [ 8.25000e+00,  1.99200e+00, -1.94400e-01, -2.97800e-02, -6.77400e-04,  3.55000e-04, -3.00800e-05,  5.73700e-05],
                           [-2.91200e-01,  1.00400e+00,  2.51000e-02, -3.46800e-02, -4.53800e-03,  5.00300e-04,  5.09700e-05,  9.03700e-06],
                           [-6.41400e-01,  3.24000e-01,  7.53700e-02, -1.09500e-03, -7.71300e-03, -1.08200e-03,  3.32100e-04,  5.08900e-06],
                           [-1.89200e-01,  5.49400e-02,  2.79900e-02,  1.93300e-02, -2.07500e-03, -2.40200e-03, -7.44300e-05,  1.06100e-04],
                           [-1.46400e-02, -9.91900e-03, -6.17700e-03,  1.30200e-02,  3.71800e-03, -1.08200e-03, -6.56800e-04,  2.07300e-05],
                           [ 2.00100e-02, -1.08700e-02, -1.22400e-02,  2.17400e-03,  3.59500e-03,  7.36300e-04, -4.57100e-04, -1.65400e-04],
                           [ 1.67300e-02, -1.48500e-03, -7.76100e-03, -2.28500e-03,  1.17600e-03,  9.92400e-04,  7.32000e-05, -1.43000e-04],
                           [ 5.86100e-03,  3.59500e-03, -2.96000e-03, -2.39700e-03, -1.10400e-04,  3.77700e-04,  2.23900e-04,  5.79100e-06],
                           [ 4.26700e-03,  4.57100e-03, -5.29700e-04, -1.42800e-03, -2.34800e-04, -1.45400e-05,  7.86800e-05,  5.85700e-05]])

# Reaction 9
chebyshev_reaction('O2 + gR (+ M) <=> gQOOH[O] (+ M)',
                   Tmin=180.0, Tmax=1500.0,
                   Pmin=(0.01, 'atm'), Pmax=(98.692, 'atm'),
                   coeffs=[[ 6.28300e+00, -8.69000e-01, -2.34000e-01,  2.59300e-02, -3.14200e-03, -2.10700e-04,  2.89600e-04, -8.29700e-05],
                           [-1.22300e-01,  1.34600e+00, -1.00900e-01, -4.25600e-02,  7.61400e-03,  7.69200e-04, -7.89800e-04,  1.18000e-04],
                           [-4.32200e-01,  5.01600e-01,  5.20400e-02, -1.84200e-02, -5.46700e-03,  1.08800e-03,  3.53800e-04, -2.54000e-04],
                           [-2.51300e-01,  1.21700e-01,  3.35900e-02,  8.93800e-03, -1.28800e-03, -2.22200e-03,  3.23400e-04,  1.07500e-04],
                           [-5.26700e-02,  2.42000e-02, -3.34700e-03,  7.23600e-03,  4.81500e-03, -9.43400e-04, -6.86000e-04,  9.27600e-05],
                           [ 1.98900e-02,  1.66300e-02, -1.31700e-02, -1.75200e-03,  3.83600e-03,  1.32700e-03, -4.64000e-04, -1.98000e-04],
                           [ 1.82200e-02,  1.59800e-02, -6.37600e-03, -5.42400e-03,  4.59600e-04,  1.53600e-03,  2.33400e-04, -1.76600e-04],
                           [ 4.76600e-03,  1.27600e-02, -8.86100e-05, -4.14000e-03, -1.16700e-03,  5.42300e-04,  4.35000e-04,  2.08900e-05],
                           [ 5.40500e-04,  6.14300e-03,  3.23600e-03, -2.06200e-03, -1.17800e-03, -9.18800e-05,  2.14800e-04,  1.03100e-04],
                           [ 7.67500e-04,  3.43100e-03,  2.47300e-03, -3.59100e-04, -6.69500e-04, -2.54600e-04,  2.73300e-05,  6.60200e-05]])
#  gRO2(+M) <=> gQOOHa(+M)                             1.000e+00 0.000     0.000
#      TCHEB/ 180.000   1500.000 /
#      PCHEB/ 0.010     98.692   /
#      CHEB/ 10 8/
#      CHEB/ -1.922e-01   4.846e-01    -1.266e-01   2.055e-03    1.887e-03   /
#      CHEB/ 1.274e-03    -1.854e-04   -6.104e-05   6.858e+00    8.056e-01   /
#      CHEB/ -1.852e-01   -1.103e-02   5.680e-03    1.872e-03    -1.038e-05  /
#      CHEB/ -1.969e-04   1.624e-01    4.775e-01    -6.720e-02   -2.528e-02  /
#      CHEB/ 2.744e-03    2.259e-03    2.810e-04    -2.049e-04   -9.496e-02  /
#      CHEB/ 1.986e-01    9.499e-03    -2.069e-02   -3.642e-03   2.346e-03   /
#      CHEB/ 6.545e-04    -1.494e-04   -8.265e-02   5.714e-02    2.529e-02   /
#      CHEB/ -5.919e-03   -6.890e-03   8.878e-04    9.751e-04    7.896e-06   /
#      CHEB/ -3.752e-02   1.749e-02    1.201e-02    4.084e-03    -4.976e-03  /
#      CHEB/ -9.938e-04   8.245e-04    2.246e-04    -1.908e-02   1.543e-02   /
#      CHEB/ -6.098e-04   5.512e-03    -1.295e-03   -1.713e-03   2.532e-04   /
#      CHEB/ 3.298e-04    -1.470e-02   1.565e-02    -4.326e-03   2.853e-03   /
#      CHEB/ 9.327e-04    -1.209e-03   -2.473e-04   2.400e-04    -1.134e-02  /
#      CHEB/ 1.172e-02    -3.110e-03   4.876e-04    1.268e-03    -3.966e-04  /
#      CHEB/ -3.844e-04   6.360e-05    -7.085e-03   6.699e-03    -1.178e-03  /
#      CHEB/ -4.887e-04   7.965e-04    8.122e-05    -2.618e-04   -5.458e-05  /
#  gQOOH[O](+M) <=> gQOOHa(+M)                         1.000e+00 0.000     0.000
#      TCHEB/ 180.000   1500.000 /
#      PCHEB/ 0.010     98.692   /
#      CHEB/ 10 8/
#      CHEB/ -3.392e-02   -7.675e-01   -2.541e-01   1.149e-02    1.606e-03   /
#      CHEB/ -5.401e-05   7.496e-05    2.422e-05    4.798e+00    1.731e+00   /
#      CHEB/ -2.051e-01   -5.124e-02   1.035e-02    1.971e-03    -6.589e-04  /
#      CHEB/ 3.934e-05    -2.857e-01   8.293e-01    3.005e-02    -4.799e-02  /
#      CHEB/ -8.121e-03   5.427e-03    3.927e-04    -5.459e-04   -6.482e-01  /
#      CHEB/ 3.456e-01    4.939e-02    -4.030e-03   -1.266e-02   -1.737e-04  /
#      CHEB/ 2.072e-03    -1.653e-04   -2.163e-01   1.134e-01    2.317e-02   /
#      CHEB/ 1.200e-02    -4.134e-03   -3.433e-03   8.634e-04    5.716e-04   /
#      CHEB/ -2.310e-02   1.022e-02    7.145e-03    9.310e-03    1.161e-03   /
#      CHEB/ -1.850e-03   -5.772e-04   4.396e-04    1.341e-02    -9.742e-03  /
#      CHEB/ -3.969e-03   4.640e-03    1.814e-03    -9.142e-05   -6.036e-04  /
#      CHEB/ -4.066e-06   1.075e-02    -3.045e-03   -6.445e-03   6.509e-04   /
#      CHEB/ 1.175e-03    3.781e-04    -1.521e-04   -1.320e-04   6.662e-03   /
#      CHEB/ 2.701e-03    -3.589e-03   -1.301e-03   4.115e-04    2.536e-04   /