units(length='cm', time='s', quantity='mol', act_energy='kcal/mol')

ideal_gas(name='gas',
          elements="H D T C Ci O Oi N Ne Ar He Si S F Cl Br I X",
          species="""propene3ol       OH               disub_c4ether
                     H2O              disub_epoxy      gQOOHa
                     propene1ol       gQOOHb           ipropylOOH
                     galdoxy          galkene          CH2O
                     O2               gRO2             gQOOHg
                     gR               galdol           monosub_c4ether
                     HO2              gQOOH[O]""",
          reactions='all',
          initial_state=state(temperature=300.0, pressure=OneAtm))

#-------------------------------------------------------------------------------
# Element data
#-------------------------------------------------------------------------------

element(symbol='Ci', atomic_mass=13.003)
element(symbol='D', atomic_mass=2.014)
element(symbol='Oi', atomic_mass=18.0)
element(symbol='T', atomic_mass=3.016)
element(symbol='X', atomic_mass=195.083)
#-------------------------------------------------------------------------------
# Species data
#-------------------------------------------------------------------------------

species(name='propene3ol',
        atoms='C:3 H:6 O:1',
        thermo=(NASA([10.00, 444.81],
                     [ 3.92769709E+00,  4.89977303E-03,  1.13094874E-04,
                      -2.59008187E-07,  1.86205760E-10, -1.74662809E+04,
                       9.90805416E+00]),
                NASA([444.81, 3000.00],
                     [ 2.61720343E+00,  3.01777872E-02, -1.76511625E-05,
                       5.14864061E-09, -5.91153761E-13, -1.74831814E+04,
                       1.36683107E+01])))

species(name='OH',
        atoms='H:1 O:1',
        thermo=(NASA([10.00, 984.14],
                     [ 3.49686242E+00,  1.83973160E-04, -9.97634499E-07,
                       1.56942783E-09, -6.10128175E-13,  3.41673934E+03,
                       1.48093120E+00]),
                NASA([984.14, 3000.00],
                     [ 3.45221464E+00, -2.95124034E-04,  7.39418622E-07,
                      -2.89309866E-10,  3.53041498E-14,  3.45751599E+03,
                       1.85813897E+00])))

species(name='disub_c4ether',
        atoms='C:4 H:8 O:2',
        thermo=(NASA([10.00, 413.50],
                     [ 3.78241323E+00,  1.89501763E-02,  8.65302396E-05,
                      -1.80580575E-07,  1.13656264E-10, -3.92006387E+04,
                       1.09982450E+01]),
                NASA([413.50, 3000.00],
                     [ 4.29420885E-01,  5.13851903E-02, -3.11292293E-05,
                       9.11498284E-09, -1.03192718E-12, -3.89233443E+04,
                       2.42134976E+01])))

species(name='H2O',
        atoms='H:2 O:1',
        thermo=(NASA([10.00, 773.84],
                     [ 4.00473541E+00, -2.39729134E-04,  8.11862955E-07,
                       1.47891862E-09, -1.19783539E-12, -3.03533807E+04,
                      -9.96254147E-02]),
                NASA([773.84, 3000.00],
                     [ 3.52133374E+00,  1.05377009E-03,  6.40722099E-07,
                      -3.86240235E-10,  5.49243294E-14, -3.02424794E+04,
                       2.34173094E+00])))

species(name='disub_epoxy',
        atoms='C:4 H:8 O:2',
        thermo=(NASA([10.00, 549.41],
                     [ 3.89863211E+00,  5.97532637E-03,  1.66685676E-04,
                      -3.10743768E-07,  1.78330192E-10, -3.78032932E+04,
                       1.13847308E+01]),
                NASA([549.41, 3000.00],
                     [-6.40277648E-01,  6.05960003E-02, -4.13427220E-05,
                       1.31555461E-08, -1.57685017E-12, -3.76301764E+04,
                       2.76005436E+01])))

species(name='gQOOHa',
        atoms='C:4 H:9 O:3',
        thermo=(NASA([10.00, 160.74],
                     [ 3.80808147E+00,  2.31043884E-02,  5.26945984E-04,
                      -3.11500696E-06,  6.03881958E-09, -2.48249918E+04,
                       1.17645316E+01]),
                NASA([160.74, 3000.00],
                     [ 2.90630300E+00,  6.50241173E-02, -4.60073244E-05,
                       1.51330930E-08, -1.87074267E-12, -2.48211672E+04,
                       1.36838819E+01])))

species(name='propene1ol',
        atoms='C:3 H:6 O:1',
        thermo=(NASA([10.00, 459.42],
                     [ 3.91245344E+00,  5.85800161E-03,  1.15412006E-04,
                      -2.68014417E-07,  1.91800131E-10, -1.80035461E+04,
                       8.14807684E+00]),
                NASA([459.42, 3000.00],
                     [ 3.14049093E+00,  2.95550898E-02, -1.73843684E-05,
                       5.11506211E-09, -5.92966137E-13, -1.81117686E+04,
                       9.32215170E+00])))

species(name='gQOOHb',
        atoms='C:4 H:9 O:3',
        thermo=(NASA([10.00, 1018.67],
                     [ 3.99028351E+00,  4.29665712E-02,  2.28338778E-05,
                      -5.67914439E-08,  2.29383258E-11, -2.55280123E+04,
                       1.20326731E+01]),
                NASA([1018.67, 3000.00],
                     [ 1.38304153E+01,  3.88527019E-02, -2.19473905E-05,
                       5.78719895E-09, -5.85097740E-13, -2.93240971E+04,
                      -4.44147388E+01])))

species(name='ipropylOOH',
        atoms='C:3 H:7 O:2',
        thermo=(NASA([10.00, 405.01],
                     [ 3.30075623E+00,  7.58672756E-02, -3.35754269E-04,
                       8.05972164E-07, -6.68864582E-10, -1.60722616E+03,
                       1.43372849E+01]),
                NASA([405.01, 3000.00],
                     [ 2.51742509E+00,  3.72760950E-02, -2.12450220E-05,
                       5.83593926E-09, -6.22110649E-13, -1.16381855E+03,
                       2.20991392E+01])))

species(name='galdoxy',
        atoms='C:4 H:7 O:2',
        thermo=(NASA([10.00, 209.62],
                     [ 3.82641108E+00,  1.84758886E-02,  3.43073800E-04,
                      -1.82817005E-06,  2.98516720E-09, -1.98694737E+04,
                       1.17972706E+01]),
                NASA([209.62, 3000.00],
                     [ 4.22049016E+00,  4.03370149E-02, -2.36129482E-05,
                       6.72979114E-09, -7.47862493E-13, -1.99505435E+04,
                       8.97211724E+00])))

species(name='galkene',
        atoms='C:4 H:8 O:1',
        thermo=(NASA([10.00, 383.47],
                     [ 3.84035604E+00,  1.20378740E-02,  1.87486319E-04,
                      -5.44759148E-07,  4.80711015E-10, -1.91473874E+04,
                       1.02570291E+01]),
                NASA([383.47, 3000.00],
                     [ 4.00413385E+00,  3.79025144E-02, -2.15435710E-05,
                       6.15213311E-09, -6.97446345E-13, -1.93626767E+04,
                       6.98052628E+00])))

species(name='CH2O',
        atoms='C:1 H:2 O:1',
        thermo=(NASA([10.00, 601.31],
                     [ 4.03190845E+00, -1.93233367E-03,  8.89743345E-06,
                       2.98105926E-09, -7.90813886E-12, -1.42276270E+04,
                       3.47574660E+00]),
                NASA([601.31, 3000.00],
                     [ 1.40134195E+00,  9.48858016E-03, -4.43088317E-06,
                       9.48452194E-10, -7.43790219E-14, -1.38013869E+04,
                       1.57423780E+01])))

species(name='O2',
        atoms='O:2',
        thermo=(NASA([10.00, 605.96],
                     [ 3.50743498E+00, -4.43860349E-04,  1.45938058E-06,
                       1.61509333E-09, -2.32050052E-12, -9.24756224E+02,
                       4.72183634E+00]),
                NASA([605.96, 3000.00],
                     [ 2.87462882E+00,  2.17840991E-03, -1.18262921E-06,
                       2.86910493E-10, -2.53297146E-14, -8.19517838E+02,
                       7.69331810E+00])))

species(name='gRO2',
        atoms='C:4 H:9 O:3',
        thermo=(NASA([10.00, 177.33],
                     [ 3.70632176E+00,  3.49733664E-02,  4.64036392E-04,
                      -3.18637835E-06,  6.38178607E-09, -2.82416158E+04,
                       1.24459269E+01]),
                NASA([177.33, 3000.00],
                     [ 4.82062697E+00,  5.17179689E-02, -3.18386818E-05,
                       9.52247045E-09, -1.10180288E-12, -2.83469863E+04,
                       7.14082953E+00])))

species(name='gQOOHg',
        atoms='C:4 H:9 O:3',
        thermo=(NASA([10.00, 475.03],
                     [ 3.42273720E+00,  4.98344215E-02,  6.47820920E-05,
                      -2.49842966E-07,  1.98636537E-10, -2.18683281E+04,
                       1.41578583E+01]),
                NASA([475.03, 3000.00],
                     [ 5.94049074E+00,  5.53778585E-02, -3.71708255E-05,
                       1.17540477E-08, -1.40812095E-12, -2.24092824E+04,
                       7.09201218E-01])))

species(name='gR',
        atoms='C:4 H:9 O:1',
        thermo=(NASA([10.00, 638.24],
                     [ 3.37074633E+00,  5.17529751E-02, -6.54872940E-05,
                       6.88084237E-08, -3.21569794E-11, -1.06563263E+04,
                       1.14339669E+01]),
                NASA([638.24, 3000.00],
                     [ 3.99410860E+00,  4.06314915E-02, -2.23932510E-05,
                       6.08356263E-09, -6.49884708E-13, -1.05889516E+04,
                       9.85769960E+00])))

species(name='galdol',
        atoms='C:4 H:8 O:2',
        thermo=(NASA([10.00, 506.68],
                     [ 3.85380874E+00,  9.21272695E-03,  1.86712348E-04,
                      -3.96417049E-07,  2.55528268E-10, -4.49263247E+04,
                       1.24312743E+01]),
                NASA([506.68, 3000.00],
                     [ 1.49710213E+00,  5.65979142E-02, -3.87709084E-05,
                       1.23682052E-08, -1.48287964E-12, -4.50569341E+04,
                       1.85531759E+01])))

species(name='monosub_c4ether',
        atoms='C:4 H:8 O:2',
        thermo=(NASA([10.00, 380.36],
                     [ 3.47743996E+00,  6.08051311E-02, -2.78518945E-04,
                       8.23182713E-07, -7.87158031E-10, -3.30620912E+04,
                       1.06415154E+01]),
                NASA([380.36, 3000.00],
                     [-1.09346901E+00,  5.35985968E-02, -3.21081420E-05,
                       9.20818293E-09, -1.01830294E-12, -3.23145312E+04,
                       3.35312368E+01])))

species(name='HO2',
        atoms='H:1 O:2',
        thermo=(NASA([10.00, 891.11],
                     [ 4.02887004E+00, -1.75769289E-03,  1.08726004E-05,
                      -1.13812972E-08,  3.90113097E-12,  4.95165001E+02,
                       4.69302008E+00]),
                NASA([891.11, 3000.00],
                     [ 3.06571044E+00,  4.28505005E-03, -2.19325920E-06,
                       5.58882699E-10, -5.61246669E-14,  5.98557610E+02,
                       8.84564156E+00])))

species(name='gQOOH[O]',
        atoms='C:4 H:9 O:3',
        thermo=(NASA([10.00, 535.23],
                     [ 3.83107445E+00,  1.02302002E-02,  2.29377261E-04,
                      -4.59095575E-07,  2.77765018E-10, -2.04043863E+04,
                       1.41034859E+01]),
                NASA([535.23, 3000.00],
                     [-4.19283096E-01,  7.69784620E-02, -5.57279000E-05,
                       1.81378295E-08, -2.18295635E-12, -2.04504996E+04,
                       2.72711816E+01])))

#-------------------------------------------------------------------------------
# Reaction data
#-------------------------------------------------------------------------------

# Reaction 1
chebyshev_reaction('gQOOH[O] (+ M) <=> gRO2 (+ M)',
                   Tmin=180.0, Tmax=1500.0,
                   Pmin=(0.01, 'atm'), Pmax=(98.692, 'atm'),
                   coeffs=[[ 1.61600e+00,  6.67900e-01, -5.35700e-03,  2.10400e-03, -1.49800e-05, -6.15700e-05, -1.54800e-04, -7.20400e-06],
                           [ 2.03500e+00,  9.89100e-01,  3.58600e-02,  1.41900e-03,  2.45500e-04, -2.42900e-04, -2.41900e-04, -2.56400e-05],
                           [-2.64800e+00,  3.76400e-01,  7.16300e-02,  7.14600e-03, -1.81900e-04, -3.75000e-04, -1.47100e-04, -2.10800e-05],
                           [-1.66000e+00,  8.01300e-03,  4.32400e-02,  1.20000e-02,  1.18200e-03, -4.60100e-04, -1.13700e-04, -5.87800e-06],
                           [-8.93600e-01, -8.14700e-02,  1.07200e-02,  7.27000e-03,  2.08200e-03, -3.82800e-05, -6.72700e-05, -1.49100e-05],
                           [-4.51400e-01, -6.92700e-02,  6.51600e-03,  2.72500e-03,  9.62200e-04,  2.54700e-04,  6.92500e-05, -2.32100e-05],
                           [-2.36400e-01, -5.71500e-02,  1.09900e-02,  4.48800e-03,  1.75100e-04,  1.07600e-04,  1.19600e-04, -2.19000e-05],
                           [-1.17300e-01, -5.80400e-02,  6.81600e-03,  7.71700e-03,  1.06100e-03,  5.93000e-05,  4.14700e-05, -4.92600e-05],
                           [-6.04100e-02, -5.82200e-02, -4.93000e-03,  7.77300e-03,  2.43800e-03,  3.33900e-04, -2.91900e-05, -9.28200e-05],
                           [-2.25700e-02, -4.96700e-02, -1.61600e-02,  4.59300e-03,  3.15100e-03,  6.37300e-04, -5.71900e-05, -1.10300e-04]])

# Reaction 2
chebyshev_reaction('gQOOHa (+ M) <=> gRO2 (+ M)',
                   Tmin=180.0, Tmax=1500.0,
                   Pmin=(0.01, 'atm'), Pmax=(98.692, 'atm'),
                   coeffs=[[ 2.15700e+00,  8.40400e-01,  1.59500e-02, -8.35900e-04, -5.40900e-03,  6.30200e-04, -3.70800e-05, -1.41100e-05],
                           [ 2.99000e-01,  1.10800e+00,  1.52800e-01, -2.66300e-02, -2.17700e-03, -3.97400e-04, -7.77100e-05, -3.03100e-05],
                           [-2.38300e+00,  4.24500e-01,  1.13400e-01,  1.47300e-02, -3.74800e-03, -1.09500e-03, -3.22100e-04,  4.21000e-05],
                           [-1.32700e+00, -7.10800e-02,  5.67900e-02,  2.52700e-02,  3.06800e-03, -1.83600e-03, -5.18900e-04,  5.27600e-05],
                           [-8.17600e-01, -1.81800e-01, -5.31600e-03,  2.10000e-02,  4.17800e-03, -6.59200e-04, -3.28000e-04, -5.90300e-06],
                           [-4.00800e-01, -1.40200e-01, -1.00300e-02,  7.70900e-03,  1.86400e-03, -8.58600e-05,  1.37900e-04,  1.26300e-05],
                           [-2.19500e-01, -7.15700e-02, -1.47800e-03,  6.57600e-03, -5.32400e-04, -5.96800e-04,  2.10800e-04,  8.63300e-05],
                           [-1.01100e-01, -4.97300e-02,  3.95400e-03,  9.73500e-03,  1.04000e-03, -1.00400e-03, -1.93200e-04,  3.78800e-05],
                           [-6.05800e-02, -4.75900e-02, -5.85300e-03,  1.09800e-02,  4.12700e-03, -3.46000e-04, -5.51200e-04, -1.27700e-04],
                           [-2.74700e-02, -4.71900e-02, -1.76300e-02,  6.19200e-03,  5.86200e-03,  8.32200e-04, -5.28800e-04, -2.48800e-04]])

# Reaction 3
chebyshev_reaction('gQOOHg (+ M) <=> gRO2 (+ M)',
                   Tmin=180.0, Tmax=1500.0,
                   Pmin=(0.01, 'atm'), Pmax=(98.692, 'atm'),
                   coeffs=[[ 3.29200e+00,  7.24000e-01, -3.53000e-02,  5.12800e-03, -7.46700e-04, -6.86800e-05, -8.99100e-05, -5.89000e-05],
                           [ 7.23900e-01,  1.21000e+00, -1.65700e-02,  1.41400e-03, -6.66200e-04, -1.45300e-04, -1.53100e-04, -9.05700e-05],
                           [-2.38000e+00,  6.72900e-01,  7.90400e-02, -7.36200e-03, -1.38100e-03,  1.68700e-04, -8.31200e-05, -2.55600e-05],
                           [-1.83000e+00,  1.63100e-01,  1.16400e-01,  1.81500e-03, -4.16100e-03,  2.04900e-04,  1.65700e-04,  2.98500e-05],
                           [-1.10300e+00, -1.27200e-01,  7.81300e-02,  1.81800e-02, -4.17400e-03, -6.46100e-04,  4.25400e-04,  9.50100e-05],
                           [-5.63600e-01, -2.02100e-01,  1.57900e-02,  2.29100e-02,  2.54000e-05, -1.34200e-03,  3.06300e-04,  1.49000e-04],
                           [-2.55700e-01, -1.57700e-01, -2.30300e-02,  1.37600e-02,  4.09500e-03, -7.00500e-04, -1.09300e-04,  7.47700e-05],
                           [-9.45400e-02, -8.49700e-02, -2.80400e-02,  2.01800e-03,  4.27600e-03,  6.90900e-04, -3.18100e-04, -1.35000e-04],
                           [-3.04400e-02, -3.27900e-02, -1.47600e-02, -2.77300e-03,  1.50800e-03,  1.28400e-03, -1.24700e-04, -2.84400e-04],
                           [-2.17000e-03, -1.16400e-02, -2.22200e-03, -5.38700e-05, -7.47300e-04,  5.13100e-04,  1.30900e-04, -1.99200e-04]])

# Reaction 4
chebyshev_reaction('gQOOHb (+ M) <=> gRO2 (+ M)',
                   Tmin=180.0, Tmax=1500.0,
                   Pmin=(0.01, 'atm'), Pmax=(98.692, 'atm'),
                   coeffs=[[-3.54700e+00,  9.11500e-01, -4.85400e-03, -1.43900e-02,  1.93300e-03,  3.27300e-04, -3.28900e-04, -7.33200e-06],
                           [ 5.38800e+00,  1.48600e+00,  2.72900e-02, -2.15600e-02,  2.52100e-03,  1.69500e-04, -4.93600e-04,  5.87800e-06],
                           [-1.77100e+00,  7.48500e-01,  8.42300e-02, -1.25900e-03, -4.90000e-04, -7.15000e-04, -1.91600e-04,  4.57700e-05],
                           [-1.32800e+00,  1.13400e-01,  8.94100e-02,  1.88100e-02, -1.47400e-03, -1.27300e-03, -4.04700e-07,  5.17500e-05],
                           [-9.07100e-01, -1.67900e-01,  4.72000e-02,  2.32000e-02,  5.10100e-04, -9.26100e-04,  3.92300e-06,  7.37800e-06],
                           [-5.12500e-01, -1.80700e-01,  6.85500e-03,  1.35400e-02,  2.15500e-03,  7.42900e-05,  5.23600e-06, -5.43000e-05],
                           [-2.25800e-01, -1.14700e-01, -7.10000e-03,  3.94100e-03,  1.45700e-03,  6.68500e-04,  1.27300e-04, -7.30200e-05],
                           [-1.19800e-01, -7.15200e-02, -5.95300e-03,  2.34300e-03,  2.25100e-04,  3.76600e-04,  1.98400e-04, -3.79600e-05],
                           [-3.32800e-02, -5.49400e-02, -6.10100e-03,  4.98900e-03,  6.19500e-04, -1.47300e-04,  5.30700e-05, -1.70000e-05],
                           [-2.80500e-02, -4.21800e-02, -1.11300e-02,  5.75400e-03,  2.23300e-03, -1.41800e-04, -1.95800e-04, -5.74300e-05]])

# Reaction 5
chebyshev_reaction('O2 + gR (+ M) <=> gRO2 (+ M)',
                   Tmin=180.0, Tmax=1500.0,
                   Pmin=(0.01, 'atm'), Pmax=(98.692, 'atm'),
                   coeffs=[[ 7.13400e+00,  5.40200e-01, -1.15100e-01,  2.51600e-02, -4.63600e-03,  5.17800e-04, -2.89700e-04,  1.08600e-04],
                           [-1.76900e+00,  9.31700e-01, -1.59100e-01,  2.28400e-02, -8.69300e-05, -1.72000e-03,  2.30200e-04,  8.78200e-07],
                           [-1.15000e+00,  6.67300e-01, -5.98500e-02, -3.55000e-03,  4.59900e-03, -1.90000e-03,  6.50100e-05,  1.08500e-04],
                           [-7.96700e-01,  3.86400e-01,  2.30400e-02, -1.66400e-02,  3.80400e-03, -5.66700e-04, -2.65400e-04,  1.44000e-04],
                           [-5.42700e-01,  1.64300e-01,  6.31000e-02, -1.33500e-02, -4.04900e-04,  7.59700e-04, -2.35000e-04,  2.98200e-05],
                           [-3.54000e-01,  2.04900e-02,  6.57000e-02, -2.43400e-03, -3.62400e-03,  9.04300e-04,  1.52400e-04, -9.10500e-05],
                           [-2.18400e-01, -5.50300e-02,  4.70600e-02,  7.51600e-03, -3.89300e-03,  1.53400e-04,  4.72600e-04, -9.01000e-05],
                           [-1.25000e-01, -8.17800e-02,  2.20900e-02,  1.23700e-02, -1.85000e-03, -6.01100e-04,  4.48400e-04, -3.51400e-06],
                           [-6.39300e-02, -7.86100e-02,  2.17100e-04,  1.19900e-02,  8.55700e-04, -7.90700e-04,  1.47100e-04,  5.43600e-05],
                           [-2.64500e-02, -6.04000e-02, -1.42300e-02,  8.16200e-03,  2.92100e-03, -4.36900e-04, -1.90800e-04,  2.60000e-05]])
#  gRO2(+M) <=> gQOOH[O](+M)                           1.000e+00 0.000     0.000
#      TCHEB/ 180.000   1500.000 /
#      PCHEB/ 0.010     98.692   /
#      CHEB/ 10 8/
#      CHEB/ -9.458e+00   6.679e-01    -5.357e-03   2.104e-03    -1.498e-05  /
#      CHEB/ -6.157e-05   -1.548e-04   -7.204e-06   1.009e+01    9.891e-01   /
#      CHEB/ 3.586e-02    1.419e-03    2.455e-04    -2.429e-04   -2.419e-04  /
#      CHEB/ -2.564e-05   -2.475e+00   3.764e-01    7.163e-02    7.146e-03   /
#      CHEB/ -1.819e-04   -3.750e-04   -1.471e-04   -2.108e-05   -1.535e+00  /
#      CHEB/ 8.013e-03    4.324e-02    1.200e-02    1.182e-03    -4.601e-04  /
#      CHEB/ -1.137e-04   -5.878e-06   -8.399e-01   -8.147e-02   1.072e-02   /
#      CHEB/ 7.270e-03    2.082e-03    -3.828e-05   -6.727e-05   -1.491e-05  /
#      CHEB/ -4.324e-01   -6.927e-02   6.516e-03    2.725e-03    9.622e-04   /
#      CHEB/ 2.547e-04    6.925e-05    -2.321e-05   -2.302e-01   -5.715e-02  /
#      CHEB/ 1.099e-02    4.488e-03    1.751e-04    1.076e-04    1.196e-04   /
#      CHEB/ -2.190e-05   -1.154e-01   -5.804e-02   6.816e-03    7.717e-03   /
#      CHEB/ 1.061e-03    5.930e-05    4.147e-05    -4.926e-05   -5.995e-02  /
#      CHEB/ -5.822e-02   -4.930e-03   7.773e-03    2.438e-03    3.339e-04   /
#      CHEB/ -2.919e-05   -9.282e-05   -2.260e-02   -4.967e-02   -1.616e-02  /
#      CHEB/ 4.593e-03    3.151e-03    6.373e-04    -5.719e-05   -1.103e-04  /

# Reaction 6
chebyshev_reaction('gQOOHa (+ M) <=> gQOOH[O] (+ M)',
                   Tmin=180.0, Tmax=1500.0,
                   Pmin=(0.01, 'atm'), Pmax=(98.692, 'atm'),
                   coeffs=[[-1.00900e+01,  6.70700e-01, -9.12300e-03, -9.72400e-02, -2.77300e-02,  1.13100e-02,  7.06200e-03, -5.30900e-04],
                           [ 6.43400e+00,  1.34600e+00,  1.41100e-01,  4.68600e-02,  2.11600e-02, -8.64000e-03, -7.66700e-03, -3.53500e-04],
                           [-2.96300e+00,  3.26500e-01,  1.16600e-01,  6.00300e-02,  3.21400e-03, -9.14400e-03, -1.64300e-03,  2.03800e-03],
                           [-1.77800e+00, -1.33500e-01, -3.25400e-03,  1.32800e-02,  1.05800e-02,  3.24400e-03, -2.71700e-04, -1.11500e-03],
                           [-9.03700e-01, -1.18600e-01, -3.78900e-02, -4.11200e-03,  2.95100e-03,  2.13900e-03,  4.17700e-04, -1.95900e-04],
                           [-4.19700e-01, -4.44900e-02, -4.67000e-03, -7.69700e-03, -2.97700e-03,  1.04200e-04,  7.12200e-04,  1.58000e-04],
                           [-2.06300e-01, -1.13500e-02,  2.06500e-02,  3.88500e-03, -3.27400e-03, -1.30400e-03,  1.23800e-04,  1.93700e-04],
                           [-1.04600e-01, -3.35200e-02,  2.17600e-02,  1.34300e-02,  7.51900e-04, -1.13900e-03, -3.91000e-04, -3.92700e-05],
                           [-6.21500e-02, -5.49400e-02,  3.00800e-03,  1.47000e-02,  4.25200e-03, -5.08800e-05, -4.91000e-04, -1.92200e-04],
                           [-3.37400e-02, -6.28900e-02, -1.67500e-02,  8.31900e-03,  5.58700e-03,  1.15400e-03, -2.78100e-04, -2.82300e-04]])

# Reaction 7
chebyshev_reaction('gQOOHg (+ M) <=> gQOOH[O] (+ M)',
                   Tmin=180.0, Tmax=1500.0,
                   Pmin=(0.01, 'atm'), Pmax=(98.692, 'atm'),
                   coeffs=[[-6.00300e+00, -4.11900e-01, -9.82900e-02,  1.56600e-02, -4.38300e-03,  6.13500e-04, -1.28100e-04, -9.10400e-05],
                           [ 3.86000e+00,  2.10100e+00,  4.73500e-02, -1.86100e-02,  2.89200e-03, -1.05300e-03, -4.15800e-05, -5.74600e-05],
                           [-3.01800e+00,  6.69200e-01,  1.58600e-01, -4.06700e-03, -1.55200e-03,  1.26300e-04, -2.40400e-04,  2.00800e-05],
                           [-1.97100e+00, -3.22200e-02,  9.22700e-02,  1.46200e-02, -2.94200e-03,  3.75200e-04,  1.25000e-04, -2.98300e-05],
                           [-1.05800e+00, -1.86700e-01,  2.56000e-02,  1.58300e-02, -2.77400e-03, -3.66000e-04,  5.92800e-04,  6.96800e-05],
                           [-5.15300e-01, -1.55900e-01, -3.48900e-03,  1.42900e-02, -6.36900e-04, -1.43300e-03,  3.94500e-04,  2.17800e-04],
                           [-2.33200e-01, -9.56600e-02, -1.40500e-02,  1.02200e-02,  2.87800e-03, -9.49600e-04, -2.26200e-04,  1.01600e-04],
                           [-9.67800e-02, -4.96200e-02, -1.29300e-02,  3.78700e-03,  3.81700e-03,  6.02200e-04, -4.01500e-04, -1.83700e-04],
                           [-4.11400e-02, -2.58800e-02, -5.94100e-03,  5.36400e-04,  1.80500e-03,  1.28700e-03, -9.57600e-05, -3.13800e-04],
                           [-1.94900e-02, -2.06600e-02, -1.19900e-03,  2.09800e-03, -1.27800e-04,  5.35800e-04,  1.67500e-04, -1.84700e-04]])

# Reaction 8
chebyshev_reaction('gQOOHb (+ M) <=> gQOOH[O] (+ M)',
                   Tmin=180.0, Tmax=1500.0,
                   Pmin=(0.01, 'atm'), Pmax=(98.692, 'atm'),
                   coeffs=[[-1.30600e+01,  1.26000e-02, -1.14800e-01, -3.14800e-03,  2.87000e-03, -9.69400e-04, -6.86400e-05,  2.08300e-05],
                           [ 8.74900e+00,  2.33300e+00,  1.33300e-01, -4.43200e-02,  1.77100e-03,  1.51700e-03, -8.51000e-04, -1.13100e-05],
                           [-2.37600e+00,  5.31500e-01,  1.70900e-01,  1.81200e-02, -4.96700e-03, -7.21300e-04, -4.64200e-06,  1.00600e-05],
                           [-1.58400e+00, -1.09600e-01,  3.49200e-02,  3.02500e-02,  2.71100e-03, -1.38800e-03, -1.32200e-04,  3.43100e-05],
                           [-8.42200e-01, -1.41000e-01, -1.40400e-02,  9.95600e-03,  2.53900e-03,  1.89300e-05,  5.09400e-05, -2.97000e-05],
                           [-4.23600e-01, -8.08400e-02, -3.15000e-04,  2.42800e-03, -1.37700e-04, -9.39500e-05,  1.73100e-04,  1.16400e-05],
                           [-2.30900e-01, -5.70500e-02,  1.14400e-02,  5.03000e-03, -1.98800e-04, -1.78000e-04,  4.74800e-05, -1.82400e-05],
                           [-1.18100e-01, -5.76400e-02,  9.71400e-03,  7.40000e-03,  7.82500e-04,  5.28600e-05,  2.99500e-05, -5.54400e-05],
                           [-6.62200e-02, -5.78200e-02, -7.91700e-04,  7.89900e-03,  1.77600e-03,  1.61200e-04, -8.55600e-06, -5.90000e-05],
                           [-2.29500e-02, -5.10200e-02, -1.20300e-02,  5.90900e-03,  2.82500e-03,  2.70300e-04, -1.35700e-04, -7.85200e-05]])

# Reaction 9
chebyshev_reaction('O2 + gR (+ M) <=> gQOOH[O] (+ M)',
                   Tmin=180.0, Tmax=1500.0,
                   Pmin=(0.01, 'atm'), Pmax=(98.692, 'atm'),
                   coeffs=[[ 1.73200e-01, -1.77400e-02, -2.00700e-01, -1.22900e-02,  1.49900e-03,  3.88100e-03, -1.12800e-03, -2.27700e-04],
                           [-1.68400e+00,  1.27200e+00,  3.02000e-02,  5.25000e-02, -1.53000e-02, -6.18100e-03,  2.08300e-03,  4.50600e-04],
                           [-1.19500e+00,  4.89700e-01, -8.25600e-02,  2.08800e-02,  1.61300e-02, -2.72900e-03, -1.57200e-03,  1.56700e-04],
                           [-7.91300e-01,  2.67500e-01, -3.89700e-02, -2.77900e-02,  7.08400e-03,  2.33500e-03,  2.30800e-05, -2.02400e-04],
                           [-4.90600e-01,  1.69600e-01,  3.60300e-02, -2.60500e-02, -4.18800e-03,  9.44500e-04,  4.32900e-04,  1.57200e-04],
                           [-3.09200e-01,  7.79300e-02,  6.84900e-02, -5.56600e-03, -6.33200e-03, -2.39500e-04,  9.99800e-05,  6.44800e-05],
                           [-2.05000e-01, -1.51000e-03,  6.04500e-02,  9.87100e-03, -4.12900e-03, -4.32100e-04,  1.75200e-04, -1.14000e-04],
                           [-1.31700e-01, -5.55600e-02,  3.33500e-02,  1.62100e-02, -9.17800e-04, -5.89100e-04,  3.02900e-04, -7.94800e-05],
                           [-8.06800e-02, -7.53600e-02,  5.30400e-03,  1.45500e-02,  1.78400e-03, -4.80200e-04,  1.86100e-04,  7.54000e-06],
                           [-3.99500e-02, -7.13100e-02, -1.56900e-02,  9.21500e-03,  3.57700e-03, -2.11100e-04, -1.05300e-04,  4.18400e-05]])
#  gRO2(+M) <=> gQOOHa(+M)                             1.000e+00 0.000     0.000
#      TCHEB/ 180.000   1500.000 /
#      PCHEB/ 0.010     98.692   /
#      CHEB/ 10 8/
#      CHEB/ -2.768e+00   8.404e-01    1.595e-02    -8.359e-04   -5.409e-03  /
#      CHEB/ 6.302e-04    -3.708e-05   -1.411e-05   4.146e+00    1.108e+00   /
#      CHEB/ 1.528e-01    -2.663e-02   -2.177e-03   -3.974e-04   -7.771e-05  /
#      CHEB/ -3.031e-05   -2.221e+00   4.245e-01    1.134e-01    1.473e-02   /
#      CHEB/ -3.748e-03   -1.095e-03   -3.221e-04   4.210e-05    -1.253e+00  /
#      CHEB/ -7.108e-02   5.679e-02    2.527e-02    3.068e-03    -1.836e-03  /
#      CHEB/ -5.189e-04   5.276e-05    -7.891e-01   -1.818e-01   -5.316e-03  /
#      CHEB/ 2.100e-02    4.178e-03    -6.592e-04   -3.280e-04   -5.903e-06  /
#      CHEB/ -3.910e-01   -1.402e-01   -1.003e-02   7.709e-03    1.864e-03   /
#      CHEB/ -8.586e-05   1.379e-04    1.263e-05    -2.166e-01   -7.157e-02  /
#      CHEB/ -1.478e-03   6.576e-03    -5.324e-04   -5.968e-04   2.108e-04   /
#      CHEB/ 8.633e-05    -1.005e-01   -4.973e-02   3.954e-03    9.735e-03   /
#      CHEB/ 1.040e-03    -1.004e-03   -1.932e-04   3.788e-05    -6.058e-02  /
#      CHEB/ -4.759e-02   -5.853e-03   1.098e-02    4.127e-03    -3.460e-04  /
#      CHEB/ -5.512e-04   -1.277e-04   -2.759e-02   -4.719e-02   -1.763e-02  /
#      CHEB/ 6.192e-03    5.862e-03    8.322e-04    -5.288e-04   -2.488e-04  /
#  gQOOH[O](+M) <=> gQOOHa(+M)                         1.000e+00 0.000     0.000
#      TCHEB/ 180.000   1500.000 /
#      PCHEB/ 0.010     98.692   /
#      CHEB/ 10 8/
#      CHEB/ -3.944e+00   6.707e-01    -9.123e-03   -9.724e-02   -2.773e-02  /
#      CHEB/ 1.131e-02    7.062e-03    -5.309e-04   2.225e+00    1.346e+00   /
#      CHEB/ 1.411e-01    4.686e-02    2.116e-02    -8.640e-03   -7.667e-03  /
#      CHEB/ -3.535e-04   -2.974e+00   3.265e-01    1.166e-01    6.003e-02   /
#      CHEB/ 3.214e-03    -9.144e-03   -1.643e-03   2.038e-03    -1.829e+00  /
#      CHEB/ -1.335e-01   -3.254e-03   1.328e-02    1.058e-02    3.244e-03   /
#      CHEB/ -2.717e-04   -1.115e-03   -9.288e-01   -1.186e-01   -3.789e-02  /
#      CHEB/ -4.112e-03   2.951e-03    2.139e-03    4.177e-04    -1.959e-04  /
#      CHEB/ -4.290e-01   -4.449e-02   -4.670e-03   -7.697e-03   -2.977e-03  /
#      CHEB/ 1.042e-04    7.122e-04    1.580e-04    -2.096e-01   -1.135e-02  /
#      CHEB/ 2.065e-02    3.885e-03    -3.274e-03   -1.304e-03   1.238e-04   /
#      CHEB/ 1.937e-04    -1.059e-01   -3.352e-02   2.176e-02    1.343e-02   /
#      CHEB/ 7.519e-04    -1.139e-03   -3.910e-04   -3.927e-05   -6.262e-02  /
#      CHEB/ -5.494e-02   3.008e-03    1.470e-02    4.252e-03    -5.088e-05  /