units(length='cm', time='s', quantity='mol', act_energy='kcal/mol')

ideal_gas(name='gas',
          elements="H D T C Ci O Oi N Ne Ar He Si S F Cl Br I X",
          species="""OH             bQOOH[O]       acetone
                     H2O            balkoxyketone  ibutenol
                     trisub_epoxy   bQOOHg         CH2O
                     galkene        O2             bR
                     bQOOHa         bRO2           disub_epoxy
                     HO2""",
          reactions='all',
          initial_state=state(temperature=300.0, pressure=OneAtm))

#-------------------------------------------------------------------------------
# Element data
#-------------------------------------------------------------------------------

element(symbol='Ci', atomic_mass=13.003)
element(symbol='D', atomic_mass=2.014)
element(symbol='Oi', atomic_mass=18.0)
element(symbol='T', atomic_mass=3.016)
element(symbol='X', atomic_mass=195.083)
#-------------------------------------------------------------------------------
# Species data
#-------------------------------------------------------------------------------

species(name='OH',
        atoms='H:1 O:1',
        thermo=(NASA([10.00, 984.14],
                     [ 3.49686242E+00,  1.83973160E-04, -9.97634499E-07,
                       1.56942783E-09, -6.10128175E-13,  3.41673934E+03,
                       1.48093120E+00]),
                NASA([984.14, 3000.00],
                     [ 3.45221464E+00, -2.95124034E-04,  7.39418622E-07,
                      -2.89309866E-10,  3.53041498E-14,  3.45751599E+03,
                       1.85813897E+00])))

species(name='bQOOH[O]',
        atoms='C:4 H:9 O:3',
        thermo=(NASA([10.00, 338.69],
                     [ 3.60915854E+00,  3.39069566E-02,  2.22227265E-04,
                      -8.23527342E-07,  8.56246333E-10, -2.25672601E+04,
                       1.23284605E+01]),
                NASA([338.69, 3000.00],
                     [ 5.03198881E+00,  5.46235886E-02, -3.56935806E-05,
                       1.12371751E-08, -1.35390171E-12, -2.28788428E+04,
                       3.82760723E+00])))

species(name='acetone',
        atoms='C:3 H:6 O:1',
        thermo=(NASA([10.00, 414.35],
                     [ 3.73496166E+00,  3.05743218E-02, -1.26253585E-04,
                       3.66080978E-07, -3.31430437E-10, -2.48244830E+04,
                       8.24936012E+00]),
                NASA([414.35, 3000.00],
                     [ 1.70010292E-01,  3.28431468E-02, -1.80960132E-05,
                       4.82960690E-09, -5.02388538E-13, -2.42530999E+04,
                       2.56372653E+01])))

species(name='H2O',
        atoms='H:2 O:1',
        thermo=(NASA([10.00, 773.84],
                     [ 4.00473541E+00, -2.39729134E-04,  8.11862955E-07,
                       1.47891862E-09, -1.19783539E-12, -3.03533807E+04,
                      -9.96254147E-02]),
                NASA([773.84, 3000.00],
                     [ 3.52133374E+00,  1.05377009E-03,  6.40722099E-07,
                      -3.86240235E-10,  5.49243294E-14, -3.02424794E+04,
                       2.34173094E+00])))

species(name='balkoxyketone',
        atoms='C:4 H:7 O:2',
        thermo=(NASA([10.00, 269.93],
                     [ 3.81931151E+00,  1.68519318E-02,  2.42742224E-04,
                      -9.64821161E-07,  1.18509335E-09, -2.06051996E+04,
                       1.20521854E+01]),
                NASA([269.93, 3000.00],
                     [ 3.57555944E+00,  4.28868089E-02, -2.65390705E-05,
                       7.99659117E-09, -9.32983470E-13, -2.06737277E+04,
                       1.13957990E+01])))

species(name='ibutenol',
        atoms='C:4 H:8 O:1',
        thermo=(NASA([10.00, 135.97],
                     [ 3.95714996E+00,  5.72646980E-03,  4.63611760E-04,
                      -3.04137514E-06,  6.85019471E-09, -2.41598579E+04,
                       8.21931848E+00]),
                NASA([135.97, 3000.00],
                     [ 3.32467612E+00,  3.69033556E-02, -1.89960416E-05,
                       4.73417677E-09, -4.59705291E-13, -2.41542793E+04,
                       9.58133237E+00])))

species(name='trisub_epoxy',
        atoms='C:4 H:8 O:2',
        thermo=(NASA([10.00, 209.19],
                     [ 3.75295042E+00,  2.37546930E-02,  1.26610110E-04,
                      -4.78364365E-07,  5.79468168E-10, -4.15060955E+04,
                       1.12739684E+01]),
                NASA([209.19, 3000.00],
                     [ 2.64185254E+00,  4.50006531E-02, -2.57361066E-05,
                       7.15266054E-09, -7.72980731E-13, -4.14596100E+04,
                       1.48960343E+01])))

species(name='bQOOHg',
        atoms='C:4 H:9 O:3',
        thermo=(NASA([10.00, 441.09],
                     [ 3.56595280E+00,  3.36073467E-02,  2.03462772E-04,
                      -5.98977617E-07,  4.83271168E-10, -2.24356239E+04,
                       1.33537891E+01]),
                NASA([441.09, 3000.00],
                     [ 6.09031192E+00,  5.80517622E-02, -4.06392697E-05,
                       1.32574026E-08, -1.62501077E-12, -2.31188093E+04,
                      -1.97849715E+00])))

species(name='CH2O',
        atoms='C:1 H:2 O:1',
        thermo=(NASA([10.00, 601.31],
                     [ 4.03190845E+00, -1.93233367E-03,  8.89743345E-06,
                       2.98105926E-09, -7.90813886E-12, -1.42276270E+04,
                       3.47574660E+00]),
                NASA([601.31, 3000.00],
                     [ 1.40134195E+00,  9.48858016E-03, -4.43088317E-06,
                       9.48452194E-10, -7.43790219E-14, -1.38013869E+04,
                       1.57423780E+01])))

species(name='galkene',
        atoms='C:4 H:8 O:1',
        thermo=(NASA([10.00, 383.47],
                     [ 3.84035604E+00,  1.20378740E-02,  1.87486319E-04,
                      -5.44759148E-07,  4.80711015E-10, -2.15149113E+04,
                       1.02570291E+01]),
                NASA([383.47, 3000.00],
                     [ 4.00413385E+00,  3.79025144E-02, -2.15435710E-05,
                       6.15213311E-09, -6.97446345E-13, -2.17302006E+04,
                       6.98052628E+00])))

species(name='O2',
        atoms='O:2',
        thermo=(NASA([10.00, 605.96],
                     [ 3.50743498E+00, -4.43860349E-04,  1.45938058E-06,
                       1.61509333E-09, -2.32050052E-12, -9.24756224E+02,
                       4.72183634E+00]),
                NASA([605.96, 3000.00],
                     [ 2.87462882E+00,  2.17840991E-03, -1.18262921E-06,
                       2.86910493E-10, -2.53297146E-14, -8.19517838E+02,
                       7.69331810E+00])))

species(name='bR',
        atoms='C:4 H:9 O:1',
        thermo=(NASA([10.00, 483.43],
                     [ 3.38164846E+00,  5.97142637E-02, -1.58320095E-04,
                       3.04908893E-07, -2.13091806E-10, -1.47465684E+04,
                       1.09226843E+01]),
                NASA([483.43, 3000.00],
                     [ 2.33428824E+00,  4.22094427E-02, -2.28029290E-05,
                       6.04614564E-09, -6.30240159E-13, -1.43394864E+04,
                       1.83772893E+01])))

species(name='bQOOHa',
        atoms='C:4 H:9 O:3',
        thermo=(NASA([10.00, 390.53],
                     [ 3.54969236E+00,  3.76592474E-02,  1.76622653E-04,
                      -5.98063750E-07,  5.45069236E-10, -2.83645834E+04,
                       1.31518761E+01]),
                NASA([390.53, 3000.00],
                     [ 5.33564209E+00,  5.64935715E-02, -3.83214298E-05,
                       1.22990604E-08, -1.49549987E-12, -2.87871934E+04,
                       2.59015836E+00])))

species(name='bRO2',
        atoms='C:4 H:9 O:3',
        thermo=(NASA([10.00, 461.39],
                     [ 3.53964713E+00,  3.88723795E-02,  9.57420148E-05,
                      -2.80380499E-07,  2.09647462E-10, -3.42133670E+04,
                       1.18803618E+01]),
                NASA([461.39, 3000.00],
                     [ 3.47201723E+00,  6.00510247E-02, -4.00567321E-05,
                       1.25663813E-08, -1.49496682E-12, -3.44263137E+04,
                       9.77903975E+00])))

species(name='disub_epoxy',
        atoms='C:4 H:8 O:2',
        thermo=(NASA([10.00, 549.41],
                     [ 3.89863211E+00,  5.97532637E-03,  1.66685676E-04,
                      -3.10743768E-07,  1.78330192E-10, -3.69344329E+04,
                       1.13847308E+01]),
                NASA([549.41, 3000.00],
                     [-6.40277648E-01,  6.05960003E-02, -4.13427220E-05,
                       1.31555461E-08, -1.57685017E-12, -3.67613160E+04,
                       2.76005436E+01])))

species(name='HO2',
        atoms='H:1 O:2',
        thermo=(NASA([10.00, 891.11],
                     [ 4.02887004E+00, -1.75769289E-03,  1.08726004E-05,
                      -1.13812972E-08,  3.90113097E-12,  4.95165001E+02,
                       4.69302008E+00]),
                NASA([891.11, 3000.00],
                     [ 3.06571044E+00,  4.28505005E-03, -2.19325920E-06,
                       5.58882699E-10, -5.61246669E-14,  5.98557610E+02,
                       8.84564156E+00])))

#-------------------------------------------------------------------------------
# Reaction data
#-------------------------------------------------------------------------------

# Reaction 1
chebyshev_reaction('bQOOHg (+ M) <=> bRO2 (+ M)',
                   Tmin=180.0, Tmax=1500.0,
                   Pmin=(0.01, 'atm'), Pmax=(98.692, 'atm'),
                   coeffs=[[ 5.09600e+00,  8.70000e-01, -9.98600e-02, -1.62200e-02,  3.36700e-03,  1.18500e-03,  1.41600e-05, -8.10000e-05],
                           [-3.41200e-01,  1.42100e+00, -1.20900e-01, -3.52500e-02,  3.14900e-03,  2.57000e-03,  2.99800e-04, -1.53000e-04],
                           [-5.55400e-01,  7.76900e-01,  6.25800e-03, -2.77200e-02, -4.91600e-03,  2.18300e-03,  9.06000e-04, -6.06700e-05],
                           [-3.84500e-01,  2.77500e-01,  5.32400e-02, -7.81700e-03, -8.26700e-03,  1.01700e-04,  1.15600e-03,  1.89400e-04],
                           [-2.17800e-01,  6.14700e-02,  3.00800e-02,  5.10900e-03, -4.26100e-03, -1.73400e-03,  5.67900e-04,  3.94600e-04],
                           [-1.07700e-01,  1.35700e-02,  6.49300e-04,  5.20100e-03,  5.27700e-04, -1.59100e-03, -2.10000e-04,  3.03600e-04],
                           [-4.41800e-02,  1.15100e-02, -8.87600e-03,  1.47100e-03,  1.64700e-03, -4.89800e-04, -4.11800e-04,  5.03200e-05],
                           [-1.25000e-02,  8.71900e-03, -5.94000e-03,  5.09000e-05,  5.78500e-04,  1.00000e-04, -1.76300e-04, -8.18800e-05],
                           [-4.57400e-04,  2.62300e-03, -1.66100e-03,  3.85100e-04, -2.00300e-04,  7.66400e-05,  1.18600e-05, -5.69900e-05],
                           [ 2.01600e-03, -1.49100e-03,  3.42200e-05,  6.78700e-04, -2.11700e-04, -3.69800e-05,  2.39200e-05, -7.52100e-06]])

# Reaction 2
chebyshev_reaction('bQOOHa (+ M) <=> bRO2 (+ M)',
                   Tmin=180.0, Tmax=1500.0,
                   Pmin=(0.01, 'atm'), Pmax=(98.692, 'atm'),
                   coeffs=[[ 1.68700e+00,  6.46300e-01, -7.98900e-02, -5.36200e-03,  2.81400e-03,  2.94000e-05, -1.79900e-04,  2.31400e-05],
                           [ 2.73300e+00,  1.11600e+00, -1.16500e-01, -1.43100e-02,  4.06400e-03,  5.10100e-04, -2.66200e-04, -4.35300e-06],
                           [ 3.69200e-01,  7.05100e-01, -2.55800e-02, -1.90000e-02,  2.67400e-04,  1.29500e-03, -4.45300e-06, -9.91100e-05],
                           [-3.69100e-01,  3.02800e-01,  3.98200e-02, -1.57100e-02, -3.34200e-03,  1.37700e-03,  3.16900e-04, -1.26100e-04],
                           [-3.57600e-01,  7.03500e-02,  4.69200e-02, -5.45700e-03, -4.34200e-03,  4.85700e-04,  4.85400e-04, -3.89100e-05],
                           [-1.73300e-01,  2.75900e-03,  2.01800e-02,  2.85100e-03, -2.56400e-03, -5.67600e-04,  3.62100e-04,  8.82200e-05],
                           [-5.33100e-02,  7.28700e-03, -2.02500e-03,  4.22200e-03, -1.91300e-04, -8.85600e-04,  6.28300e-05,  1.39400e-04],
                           [-1.31400e-02,  1.36600e-02, -6.11700e-03,  1.56700e-03,  7.80100e-04, -4.68100e-04, -1.48000e-04,  8.36200e-05],
                           [-7.21000e-03,  7.45800e-03, -1.31600e-03, -3.89900e-04,  4.04000e-04,  1.86200e-05, -1.47000e-04, -3.11400e-06],
                           [-6.17800e-03,  8.85700e-05,  1.70100e-03, -4.27500e-04, -1.00700e-04,  1.41500e-04, -4.17300e-05, -3.91500e-05]])

# Reaction 3
chebyshev_reaction('bQOOH[O] (+ M) <=> bRO2 (+ M)',
                   Tmin=180.0, Tmax=1500.0,
                   Pmin=(0.01, 'atm'), Pmax=(98.692, 'atm'),
                   coeffs=[[ 9.57700e+00,  1.86300e+00, -1.96500e-01, -7.25500e-02, -9.63300e-03,  5.18700e-03,  3.43500e-03,  5.12800e-04],
                           [-1.07500e+00,  4.55300e-01,  3.52500e-02,  2.43000e-03, -4.20500e-03, -3.56000e-03, -7.97400e-04,  4.20800e-04],
                           [-6.82200e-01,  3.11600e-01,  1.47500e-02,  8.64700e-04, -2.81500e-04, -1.00400e-03, -5.01000e-04, -3.82100e-05],
                           [-4.34300e-01,  1.98900e-01,  1.53000e-02,  1.44400e-03, -1.75700e-04, -6.80400e-04, -3.35800e-04, -3.00100e-05],
                           [-2.63700e-01,  1.00800e-01,  1.29900e-02,  2.19400e-03,  2.16000e-04, -3.72500e-04, -2.63700e-04, -6.78300e-05],
                           [-1.40800e-01,  3.71000e-02,  8.18700e-03,  2.11000e-03,  4.23600e-04, -1.16600e-04, -1.59100e-04, -7.10000e-05],
                           [-6.45800e-02,  7.64900e-03,  3.35600e-03,  1.33500e-03,  3.62600e-04,  3.00900e-05, -4.53000e-05, -3.96600e-05],
                           [-2.73300e-02,  1.19000e-04,  6.27600e-04,  5.80100e-04,  1.86800e-04,  3.92900e-05,  4.61900e-06, -8.46500e-06],
                           [-1.12700e-02, -3.39600e-06, -4.34200e-04,  1.02600e-04,  9.62300e-05,  3.32100e-05,  8.45900e-06, -2.08000e-06],
                           [-4.29100e-03,  3.61200e-04, -5.59900e-04, -1.01900e-04,  5.71400e-05,  3.25800e-05,  3.84800e-06, -3.78000e-06]])

# Reaction 4
chebyshev_reaction('O2 + bR (+ M) <=> bRO2 (+ M)',
                   Tmin=180.0, Tmax=1500.0,
                   Pmin=(0.01, 'atm'), Pmax=(98.692, 'atm'),
                   coeffs=[[ 1.41100e+01,  7.00500e-01, -8.10800e-02,  3.74100e-03, -1.62100e-04, -1.68400e-04,  1.97500e-05,  7.22100e-06],
                           [-1.50200e+00,  8.71500e-01, -1.89300e-02, -1.40300e-02,  3.53000e-04,  2.36200e-04, -4.76100e-05, -8.25400e-06],
                           [-7.09300e-01,  2.94200e-01,  4.20100e-02, -3.30800e-03, -1.87500e-03, -4.32700e-05,  6.37700e-05, -8.76700e-08],
                           [-3.06000e-01,  5.03300e-02,  2.27000e-02,  4.01400e-03, -2.73100e-04, -2.76500e-04, -2.89900e-05,  1.04800e-05],
                           [-1.30600e-01,  7.19800e-03,  3.65600e-03,  1.84900e-03,  5.55800e-04,  2.13400e-05, -3.95200e-05, -9.01900e-06],
                           [-6.47900e-02,  6.92700e-03,  7.69400e-04, -1.48600e-04,  9.79600e-05,  8.66000e-05,  1.66700e-05, -3.68400e-06],
                           [-3.27200e-02,  1.88800e-03,  1.71100e-03,  3.46100e-05, -1.24300e-04, -1.59700e-05,  1.27300e-05,  5.10500e-06],
                           [-1.23000e-02, -4.17700e-03,  1.12800e-03,  3.74300e-04, -3.84500e-06, -3.04400e-05, -7.46600e-06,  8.38400e-07],
                           [-1.41300e-03, -5.50700e-03,  7.97900e-05,  2.52400e-04,  6.16500e-05,  3.12600e-06, -4.84300e-06, -2.27900e-06],
                           [ 1.80000e-03, -3.65600e-03, -2.69200e-04,  5.01100e-05,  2.69100e-05,  1.07000e-05,  2.06300e-06, -4.55300e-07]])
#  bRO2(+M) <=> bQOOHg(+M)                             1.000e+00 0.000     0.000
#      TCHEB/ 180.000   1500.000 /
#      PCHEB/ 0.010     98.692   /
#      CHEB/ 10 8/
#      CHEB/ -9.865e+00   8.700e-01    -9.986e-02   -1.622e-02   3.367e-03   /
#      CHEB/ 1.185e-03    1.416e-05    -8.100e-05   1.256e+01    1.421e+00   /
#      CHEB/ -1.209e-01   -3.525e-02   3.149e-03    2.570e-03    2.998e-04   /
#      CHEB/ -1.530e-04   -4.097e-01   7.769e-01    6.258e-03    -2.772e-02  /
#      CHEB/ -4.916e-03   2.183e-03    9.060e-04    -6.067e-05   -3.474e-01  /
#      CHEB/ 2.775e-01    5.324e-02    -7.817e-03   -8.267e-03   1.017e-04   /
#      CHEB/ 1.156e-03    1.894e-04    -2.121e-01   6.147e-02    3.008e-02   /
#      CHEB/ 5.109e-03    -4.261e-03   -1.734e-03   5.679e-04    3.946e-04   /
#      CHEB/ -1.078e-01   1.357e-02    6.493e-04    5.201e-03    5.277e-04   /
#      CHEB/ -1.591e-03   -2.100e-04   3.036e-04    -4.476e-02   1.151e-02   /
#      CHEB/ -8.876e-03   1.471e-03    1.647e-03    -4.898e-04   -4.118e-04  /
#      CHEB/ 5.032e-05    -1.295e-02   8.719e-03    -5.940e-03   5.090e-05   /
#      CHEB/ 5.785e-04    1.000e-04    -1.763e-04   -8.188e-05   -7.814e-04  /
#      CHEB/ 2.623e-03    -1.661e-03   3.851e-04    -2.003e-04   7.664e-05   /
#      CHEB/ 1.186e-05    -5.699e-05   1.830e-03    -1.491e-03   3.422e-05   /
#      CHEB/ 6.787e-04    -2.117e-04   -3.698e-05   2.392e-05    -7.521e-06  /

# Reaction 5
chebyshev_reaction('bQOOHa (+ M) <=> bQOOHg (+ M)',
                   Tmin=180.0, Tmax=1500.0,
                   Pmin=(0.01, 'atm'), Pmax=(98.692, 'atm'),
                   coeffs=[[-9.91500e+00, -1.37000e-01, -2.55000e-01, -1.80000e-02,  6.01100e-03,  4.94700e-04, -1.37600e-04,  1.42600e-04],
                           [ 8.94900e+00,  2.65900e+00, -2.11400e-01, -6.58400e-02,  2.92700e-03,  3.08200e-03,  5.14300e-04,  9.49700e-07],
                           [-1.49000e-01,  9.95800e-01,  1.02900e-01, -4.46400e-02, -1.91000e-02,  3.66100e-03,  2.11200e-03, -1.13900e-04],
                           [-4.55300e-01,  1.65400e-01,  1.07100e-01,  2.98200e-04, -1.63200e-02, -1.92500e-03,  1.77200e-03,  5.20400e-04],
                           [-1.48200e-01,  5.34000e-03,  1.81100e-02,  1.30800e-02, -2.21500e-03, -4.03400e-03, -1.54600e-04,  6.64200e-04],
                           [ 3.11800e-02, -3.06300e-03, -9.42000e-03,  9.21300e-03,  1.70200e-03, -1.99900e-03, -8.09800e-04,  1.50500e-04],
                           [ 5.13400e-02, -2.20000e-02,  7.54900e-04,  6.20100e-03,  2.35200e-04, -4.74000e-04, -4.74000e-04, -1.17400e-04],
                           [ 2.64500e-02, -3.17100e-02,  6.90700e-03,  3.37800e-03,  3.40000e-04, -3.54100e-05, -3.03600e-04, -8.70500e-05],
                           [ 6.60400e-03, -2.35200e-02,  4.45300e-03,  4.68200e-04,  9.79800e-04,  1.53700e-04, -1.99500e-04, -6.70200e-05],
                           [ 6.83200e-03, -1.07400e-02,  1.00200e-03, -5.60300e-04,  6.19700e-04,  2.00800e-04, -1.67900e-05, -6.17200e-05]])

# Reaction 6
chebyshev_reaction('bQOOH[O] (+ M) <=> bQOOHg (+ M)',
                   Tmin=180.0, Tmax=1500.0,
                   Pmin=(0.01, 'atm'), Pmax=(98.692, 'atm'),
                   coeffs=[[-4.29000e-01,  8.37900e-01, -3.63400e-01, -7.87300e-02, -1.64100e-03,  7.36700e-03,  3.14100e-03, -3.71000e-05],
                           [ 2.41400e+00,  1.84400e+00, -5.96300e-02, -3.30300e-02, -2.55000e-03, -1.43400e-03, -7.91200e-04,  3.72500e-04],
                           [-3.47100e-01,  7.62900e-01,  1.09500e-01, -1.85700e-02, -1.35000e-02, -5.52500e-04,  6.35300e-04,  1.06800e-04],
                           [-4.76300e-01,  1.90600e-01,  7.25600e-02,  1.30700e-02, -9.20200e-03, -3.11300e-03,  7.45900e-04,  3.21900e-04],
                           [-1.85300e-01,  2.71800e-02,  6.70600e-03,  1.57900e-02,  1.78000e-04, -2.87200e-03, -4.33900e-04,  3.71100e-04],
                           [-5.01000e-03, -7.55500e-03, -5.76100e-03,  5.41500e-03,  2.07000e-03, -6.78100e-04, -7.43700e-04,  4.45900e-05],
                           [ 3.16900e-02, -1.90500e-02,  1.79300e-03,  5.96500e-04,  4.64900e-04,  3.12600e-04, -2.66000e-04, -1.42100e-04],
                           [ 2.26600e-02, -1.29200e-02,  7.01700e-03,  5.73100e-04, -6.51000e-04, -6.74500e-05,  1.94700e-05, -1.91000e-05],
                           [ 1.03100e-03, -1.13400e-02,  3.17500e-03,  7.04500e-04,  4.52900e-05, -3.32700e-05, -2.19100e-05, -1.57800e-05],
                           [ 4.63600e-04, -1.28300e-02, -1.51300e-03,  2.28500e-04,  8.10200e-04,  2.61700e-04, -8.59500e-05, -9.10400e-05]])

# Reaction 7
chebyshev_reaction('O2 + bR (+ M) <=> bQOOHg (+ M)',
                   Tmin=180.0, Tmax=1500.0,
                   Pmin=(0.01, 'atm'), Pmax=(98.692, 'atm'),
                   coeffs=[[ 6.84600e+00,  9.57500e-02, -3.60900e-01, -8.58600e-03,  1.78500e-02, -6.67400e-04, -2.08500e-03,  5.11800e-04],
                           [ 2.49600e-01,  1.50100e+00,  9.92000e-02, -6.84400e-02, -1.92000e-02,  7.96300e-03,  3.21300e-03, -1.22100e-03],
                           [-1.26600e-01,  3.09700e-01,  1.04500e-01,  8.41400e-04, -1.40600e-02, -3.13400e-03,  2.29200e-03,  9.94600e-04],
                           [-1.67300e-02, -4.48900e-02,  3.08900e-02,  1.10100e-02, -2.86000e-03, -3.26500e-03, -1.73400e-04,  7.88500e-04],
                           [ 7.74500e-02, -4.97700e-02,  2.41300e-03,  5.18600e-03,  2.79300e-04, -1.54000e-03, -7.10200e-04,  1.93200e-04],
                           [ 6.51300e-02, -1.59900e-02,  6.61900e-04,  2.96900e-03,  7.03400e-04, -6.71900e-04, -5.70700e-04, -7.45000e-05],
                           [ 2.24100e-02, -2.58700e-03, -4.50200e-05,  1.77900e-03,  9.60000e-04, -7.43200e-05, -3.55300e-04, -1.55100e-04],
                           [ 3.63300e-03, -8.08700e-04, -1.26900e-03,  6.16600e-04,  6.49800e-04,  1.73400e-04, -1.07500e-04, -1.20800e-04],
                           [-8.61000e-03,  1.77000e-03, -1.43500e-03, -3.06500e-04,  3.00100e-04,  2.02200e-04, -3.69300e-06, -6.40400e-05],
                           [ 1.64800e-03,  1.52000e-03, -4.43400e-04, -2.62900e-04,  1.90800e-05,  9.51400e-05,  4.42600e-05, -1.78900e-05]])
#  bRO2(+M) <=> bQOOHa(+M)                             1.000e+00 0.000     0.000
#      TCHEB/ 180.000   1500.000 /
#      PCHEB/ 0.010     98.692   /
#      CHEB/ 10 8/
#      CHEB/ -5.367e+00   6.463e-01    -7.989e-02   -5.362e-03   2.814e-03   /
#      CHEB/ 2.940e-05    -1.799e-04   2.314e-05    9.188e+00    1.116e+00   /
#      CHEB/ -1.165e-01   -1.431e-02   4.064e-03    5.101e-04    -2.662e-04  /
#      CHEB/ -4.353e-06   4.242e-01    7.051e-01    -2.558e-02   -1.900e-02  /
#      CHEB/ 2.674e-04    1.295e-03    -4.453e-06   -9.911e-05   -3.679e-01  /
#      CHEB/ 3.028e-01    3.982e-02    -1.571e-02   -3.342e-03   1.377e-03   /
#      CHEB/ 3.169e-04    -1.261e-04   -3.624e-01   7.035e-02    4.692e-02   /
#      CHEB/ -5.457e-03   -4.342e-03   4.857e-04    4.854e-04    -3.891e-05  /
#      CHEB/ -1.761e-01   2.759e-03    2.018e-02    2.851e-03    -2.564e-03  /
#      CHEB/ -5.676e-04   3.621e-04    8.822e-05    -5.466e-02   7.287e-03   /
#      CHEB/ -2.025e-03   4.222e-03    -1.913e-04   -8.856e-04   6.283e-05   /
#      CHEB/ 1.394e-04    -1.386e-02   1.366e-02    -6.117e-03   1.567e-03   /
#      CHEB/ 7.801e-04    -4.681e-04   -1.480e-04   8.362e-05    -7.559e-03  /
#      CHEB/ 7.458e-03    -1.316e-03   -3.899e-04   4.040e-04    1.862e-05   /
#      CHEB/ -1.470e-04   -3.114e-06   -6.298e-03   8.857e-05    1.701e-03   /
#      CHEB/ -4.275e-04   -1.007e-04   1.415e-04    -4.173e-05   -3.915e-05  /
#  bQOOHg(+M) <=> bQOOHa(+M)                           1.000e+00 0.000     0.000
#      TCHEB/ 180.000   1500.000 /
#      PCHEB/ 0.010     98.692   /
#      CHEB/ 10 8/
#      CHEB/ -2.009e+00   -1.370e-01   -2.550e-01   -1.800e-02   6.011e-03   /
#      CHEB/ 4.947e-04    -1.376e-04   1.426e-04    2.507e+00    2.659e+00   /
#      CHEB/ -2.114e-01   -6.584e-02   2.927e-03    3.082e-03    5.143e-04   /
#      CHEB/ 9.497e-07    -2.397e-01   9.958e-01    1.029e-01    -4.464e-02  /
#      CHEB/ -1.910e-02   3.661e-03    2.112e-03    -1.139e-04   -4.911e-01  /
#      CHEB/ 1.654e-01    1.071e-01    2.982e-04    -1.632e-02   -1.925e-03  /
#      CHEB/ 1.772e-03    5.204e-04    -1.588e-01   5.340e-03    1.811e-02   /
#      CHEB/ 1.308e-02    -2.215e-03   -4.034e-03   -1.546e-04   6.642e-04   /
#      CHEB/ 2.856e-02    -3.063e-03   -9.420e-03   9.213e-03    1.702e-03   /
#      CHEB/ -1.999e-03   -8.098e-04   1.505e-04    5.057e-02    -2.200e-02  /
#      CHEB/ 7.549e-04    6.201e-03    2.352e-04    -4.740e-04   -4.740e-04  /
#      CHEB/ -1.174e-04   2.618e-02    -3.171e-02   6.907e-03    3.378e-03   /
#      CHEB/ 3.400e-04    -3.541e-05   -3.036e-04   -8.705e-05   6.580e-03   /
#      CHEB/ -2.352e-02   4.453e-03    4.682e-04    9.798e-04    1.537e-04   /
#      CHEB/ -1.995e-04   -6.702e-05   6.899e-03    -1.074e-02   1.002e-03   /
#      CHEB/ -5.603e-04   6.197e-04    2.008e-04    -1.679e-05   -6.172e-05  /

# Reaction 8
chebyshev_reaction('bQOOH[O] (+ M) <=> bQOOHa (+ M)',
                   Tmin=180.0, Tmax=1500.0,
                   Pmin=(0.01, 'atm'), Pmax=(98.692, 'atm'),
                   coeffs=[[ 2.07800e+00,  6.15600e-01, -3.35200e-01, -6.67200e-02, -5.36100e-03,  6.25500e-03,  3.19800e-03,  1.98000e-04],
                           [ 1.62400e+00,  1.60700e+00, -7.99600e-02, -1.53100e-02,  2.07700e-03, -3.64700e-03, -1.12700e-03,  3.90400e-04],
                           [-4.34400e-01,  7.99400e-01,  7.43700e-02, -2.70900e-02, -3.55200e-03, -1.55300e-04, -8.22000e-04,  2.56700e-05],
                           [-6.56300e-01,  2.58200e-01,  7.91000e-02, -3.12300e-03, -7.78600e-03,  4.71700e-04,  1.12600e-04, -3.02100e-04],
                           [-3.03900e-01,  5.60700e-02,  2.27100e-02,  1.15800e-02, -3.65000e-03, -1.11700e-03,  4.74000e-04, -9.75400e-05],
                           [-6.53500e-02,  1.51200e-02, -2.20600e-03,  7.65200e-03,  5.34600e-04, -1.41500e-03,  2.25600e-05,  1.77100e-04],
                           [-2.79000e-03,  6.09800e-03, -6.13800e-04,  1.58600e-03,  9.38500e-04, -4.66100e-04, -2.47700e-04,  1.13400e-04],
                           [-4.33900e-03,  4.30900e-03,  4.17200e-03,  4.32500e-04, -2.24300e-04, -1.30700e-04, -1.38000e-04,  3.04600e-05],
                           [-8.73700e-03, -1.78900e-03,  1.53000e-03,  8.90800e-04,  1.15600e-05, -1.25700e-06, -6.29600e-05, -3.46800e-05],
                           [-8.14900e-03, -5.91400e-03, -1.82400e-03,  6.35300e-04,  5.66900e-04,  1.60100e-04, -7.06700e-05, -7.06400e-05]])

# Reaction 9
chebyshev_reaction('O2 + bR (+ M) <=> bQOOHa (+ M)',
                   Tmin=180.0, Tmax=1500.0,
                   Pmin=(0.01, 'atm'), Pmax=(98.692, 'atm'),
                   coeffs=[[ 8.84700e+00, -1.66400e-01, -3.30500e-01,  2.15700e-02,  8.80800e-03, -4.69300e-03,  2.31800e-04,  7.04200e-04],
                           [-3.38800e-01,  1.59700e+00,  4.99000e-02, -7.76200e-02, -2.43800e-03,  7.78500e-03, -1.18300e-03, -6.76100e-04],
                           [-5.04600e-01,  4.19900e-01,  1.10900e-01, -1.31500e-02, -1.44300e-02,  1.28400e-03,  2.07500e-03, -3.65000e-04],
                           [-2.42800e-01,  2.79800e-02,  4.66100e-02,  7.60000e-03, -6.26500e-03, -2.32100e-03,  9.93100e-04,  4.79100e-04],
                           [-3.42300e-02, -1.99000e-02,  1.34300e-02,  6.45900e-03, -1.54800e-03, -2.10800e-03, -1.13600e-04,  4.46400e-04],
                           [ 2.01900e-02, -1.13200e-02,  6.31000e-03,  4.87000e-03,  1.84300e-04, -1.29600e-03, -4.95700e-04,  1.60300e-04],
                           [ 1.34900e-02, -9.30400e-03,  2.48400e-03,  3.50900e-03,  1.05700e-03, -4.72100e-04, -4.71000e-04, -4.92800e-05],
                           [ 1.58600e-03, -8.17000e-03, -8.56300e-04,  1.61100e-03,  1.07600e-03,  6.78300e-05, -2.62100e-04, -1.15500e-04],
                           [ 6.60800e-04, -5.24700e-03, -1.66100e-03,  3.07900e-04,  5.61200e-04,  2.36100e-04, -6.53300e-05, -9.71600e-05],
                           [-7.69000e-04, -8.30600e-04, -1.46600e-03, -1.85700e-04,  2.78100e-04,  1.62000e-04,  1.05700e-05, -4.04700e-05]])
#  bRO2(+M) <=> bQOOH[O](+M)                           1.000e+00 0.000     0.000
#      TCHEB/ 180.000   1500.000 /
#      PCHEB/ 0.010     98.692   /
#      CHEB/ 10 8/
#      CHEB/ -5.720e+00   1.863e+00    -1.965e-01   -7.255e-02   -9.633e-03  /
#      CHEB/ 5.187e-03    3.435e-03    5.128e-04    1.141e+01    4.553e-01   /
#      CHEB/ 3.525e-02    2.430e-03    -4.205e-03   -3.560e-03   -7.974e-04  /
#      CHEB/ 4.208e-04    -6.881e-01   3.116e-01    1.475e-02    8.647e-04   /
#      CHEB/ -2.815e-04   -1.004e-03   -5.010e-04   -3.821e-05   -4.553e-01  /
#      CHEB/ 1.989e-01    1.530e-02    1.444e-03    -1.757e-04   -6.804e-04  /
#      CHEB/ -3.358e-04   -3.001e-05   -2.745e-01   1.008e-01    1.299e-02   /
#      CHEB/ 2.194e-03    2.160e-04    -3.725e-04   -2.637e-04   -6.783e-05  /
#      CHEB/ -1.447e-01   3.710e-02    8.187e-03    2.110e-03    4.236e-04   /
#      CHEB/ -1.166e-04   -1.591e-04   -7.100e-05   -6.610e-02   7.649e-03   /
#      CHEB/ 3.356e-03    1.335e-03    3.626e-04    3.009e-05    -4.530e-05  /
#      CHEB/ -3.966e-05   -2.796e-02   1.190e-04    6.276e-04    5.801e-04   /
#      CHEB/ 1.868e-04    3.929e-05    4.619e-06    -8.465e-06   -1.145e-02  /
#      CHEB/ -3.396e-06   -4.342e-04   1.026e-04    9.623e-05    3.321e-05   /
#      CHEB/ 8.459e-06    -2.080e-06   -4.285e-03   3.612e-04    -5.599e-04  /
#      CHEB/ -1.019e-04   5.714e-05    3.258e-05    3.848e-06    -3.780e-06  /
#  bQOOHg(+M) <=> bQOOH[O](+M)                         1.000e+00 0.000     0.000
#      TCHEB/ 180.000   1500.000 /
#      PCHEB/ 0.010     98.692   /
#      CHEB/ 10 8/
#      CHEB/ -7.652e-01   8.379e-01    -3.634e-01   -7.873e-02   -1.641e-03  /
#      CHEB/ 7.367e-03    3.141e-03    -3.710e-05   2.003e+00    1.844e+00   /
#      CHEB/ -5.963e-02   -3.303e-02   -2.550e-03   -1.434e-03   -7.912e-04  /
#      CHEB/ 3.725e-04    -4.988e-01   7.629e-01    1.095e-01    -1.857e-02  /
#      CHEB/ -1.350e-02   -5.525e-04   6.353e-04    1.068e-04    -5.345e-01  /