units(length='cm', time='s', quantity='mol', act_energy='kcal/mol')

ideal_gas(name='gas',
          elements="H D T C Ci O Oi N Ne Ar He Si S F Cl Br I X",
          species="""aOOHbalkene      OH               ibutanal
                     aR               performic_acid   disub_c4ether
                     aQOOHb           H                aadduct
                     trisub_epoxy     ibutenol         aQOOH[O]
                     ipropyl          aRO2             O2
                     formic_acid      propene          aQOOHg
                     ibut_peroxyacid  HO2              CH3""",
          reactions='all',
          initial_state=state(temperature=300.0, pressure=OneAtm))

#-------------------------------------------------------------------------------
# Element data
#-------------------------------------------------------------------------------

element(symbol='Ci', atomic_mass=13.003)
element(symbol='D', atomic_mass=2.014)
element(symbol='Oi', atomic_mass=18.0)
element(symbol='T', atomic_mass=3.016)
element(symbol='X', atomic_mass=195.083)
#-------------------------------------------------------------------------------
# Species data
#-------------------------------------------------------------------------------

species(name='aOOHbalkene',
        atoms='C:3 H:6 O:3',
        thermo=(NASA([10.00, 497.41],
                     [ 3.76691735E+00,  1.51417956E-02,  1.85499431E-04,
                      -4.61303214E-07,  3.27678941E-10, -3.08747669E+04,
                       1.09903968E+01]),
                NASA([497.41, 3000.00],
                     [ 6.20882781E+00,  4.08866173E-02, -2.89934946E-05,
                       9.60428979E-09, -1.19355432E-12, -3.16790962E+04,
                      -4.72842811E+00])))

species(name='OH',
        atoms='H:1 O:1',
        thermo=(NASA([10.00, 984.14],
                     [ 3.49686242E+00,  1.83973160E-04, -9.97634499E-07,
                       1.56942783E-09, -6.10128175E-13,  3.41673934E+03,
                       1.48093120E+00]),
                NASA([984.14, 3000.00],
                     [ 3.45221464E+00, -2.95124034E-04,  7.39418622E-07,
                      -2.89309866E-10,  3.53041498E-14,  3.45751599E+03,
                       1.85813897E+00])))

species(name='ibutanal',
        atoms='C:4 H:8 O:1',
        thermo=(NASA([10.00, 683.88],
                     [ 3.57157346E+00,  3.36936906E-02, -1.78475021E-05,
                       1.31946716E-08, -7.58008388E-12, -2.91039485E+04,
                       1.05595084E+01]),
                NASA([683.88, 3000.00],
                     [ 1.29043622E+00,  4.14804229E-02, -2.27411206E-05,
                       6.08619500E-09, -6.38995128E-13, -2.86620294E+04,
                       2.16477430E+01])))

species(name='aR',
        atoms='C:4 H:9 O:1',
        thermo=(NASA([10.00, 455.22],
                     [ 3.59625500E+00,  3.38947981E-02,  7.37257079E-06,
                      -3.99275335E-08,  2.49019944E-11, -1.33837828E+04,
                       1.18269265E+01]),
                NASA([455.22, 3000.00],
                     [ 2.49586309E+00,  4.35639890E-02, -2.44887770E-05,
                       6.73363769E-09, -7.23862433E-13, -1.32835996E+04,
                       1.62696907E+01])))

species(name='performic_acid',
        atoms='C:1 H:2 O:3',
        thermo=(NASA([10.00, 590.95],
                     [ 3.92633851E+00,  4.24517168E-03,  6.71106764E-05,
                      -1.36545385E-07,  8.03337864E-11, -3.63028176E+04,
                       8.06485813E+00]),
                NASA([590.95, 3000.00],
                     [ 4.39992934E+00,  1.85411415E-02, -1.36005501E-05,
                       4.62292431E-09, -5.88463603E-13, -3.66643888E+04,
                       3.44353230E+00])))

species(name='disub_c4ether',
        atoms='C:4 H:8 O:2',
        thermo=(NASA([10.00, 413.50],
                     [ 3.78241323E+00,  1.89501763E-02,  8.65302396E-05,
                      -1.80580575E-07,  1.13656264E-10, -4.23630620E+04,
                       1.09982450E+01]),
                NASA([413.50, 3000.00],
                     [ 4.29420885E-01,  5.13851903E-02, -3.11292293E-05,
                       9.11498284E-09, -1.03192718E-12, -4.20857677E+04,
                       2.42134976E+01])))

species(name='aQOOHb',
        atoms='C:4 H:9 O:3',
        thermo=(NASA([10.00, 412.78],
                     [ 3.15498836E+00,  8.55068303E-02, -2.35307993E-04,
                       4.71983261E-07, -3.62709267E-10, -2.92707086E+04,
                       1.52522123E+01]),
                NASA([412.78, 3000.00],
                     [ 4.18099845E+00,  5.26168288E-02, -3.23998410E-05,
                       9.59389339E-09, -1.09464519E-12, -2.91599137E+04,
                       1.35782328E+01])))

species(name='H',
        atoms='H:1',
        thermo=(NASA([10.00, 794.01],
                     [ 2.50000000E+00,  1.99051163E-15, -1.19089508E-17,
                       2.10805655E-20, -1.11017699E-23,  2.54725594E+04,
                      -4.61279342E-01]),
                NASA([794.01, 3000.00],
                     [ 2.50000000E+00,  1.52667235E-14, -1.58445285E-17,
                       6.63088600E-21, -9.62111674E-25,  2.54725594E+04,
                      -4.61279342E-01])))

species(name='aadduct',
        atoms='C:4 H:9 O:3',
        thermo=(NASA([10.00, 449.84],
                     [ 3.06901904E+00,  9.20724491E-02, -2.68085092E-04,
                       5.15249897E-07, -3.68046586E-10, -3.01782520E+04,
                       1.46591735E+01]),
                NASA([449.84, 3000.00],
                     [ 4.11210745E+00,  5.16955724E-02, -2.97401041E-05,
                       8.32758939E-09, -9.08861448E-13, -2.99574111E+04,
                       1.39578825E+01])))

species(name='trisub_epoxy',
        atoms='C:4 H:8 O:2',
        thermo=(NASA([10.00, 209.19],
                     [ 3.75295042E+00,  2.37546930E-02,  1.26610110E-04,
                      -4.78364365E-07,  5.79468168E-10, -4.15480864E+04,
                       1.12739684E+01]),
                NASA([209.19, 3000.00],
                     [ 2.64185254E+00,  4.50006531E-02, -2.57361066E-05,
                       7.15266054E-09, -7.72980731E-13, -4.15016008E+04,
                       1.48960343E+01])))

species(name='ibutenol',
        atoms='C:4 H:8 O:1',
        thermo=(NASA([10.00, 135.97],
                     [ 3.95714996E+00,  5.72646980E-03,  4.63611760E-04,
                      -3.04137514E-06,  6.85019471E-09, -2.36580413E+04,
                       8.21931848E+00]),
                NASA([135.97, 3000.00],
                     [ 3.32467612E+00,  3.69033556E-02, -1.89960416E-05,
                       4.73417677E-09, -4.59705291E-13, -2.36524627E+04,
                       9.58133237E+00])))

species(name='aQOOH[O]',
        atoms='C:4 H:9 O:3',
        thermo=(NASA([10.00, 488.36],
                     [ 3.54559533E+00,  3.89536133E-02,  8.47689703E-05,
                      -2.45147486E-07,  1.76157259E-10, -2.62333058E+04,
                       1.34685910E+01]),
                NASA([488.36, 3000.00],
                     [ 3.94214913E+00,  5.71928314E-02, -3.72516212E-05,
                       1.15209013E-08, -1.35808341E-12, -2.65282667E+04,
                       9.21628964E+00])))

species(name='ipropyl',
        atoms='C:3 H:7',
        thermo=(NASA([10.00, 421.76],
                     [ 3.73943775E+00,  3.10070157E-02, -1.51196908E-04,
                       4.35367329E-07, -3.85565052E-10,  9.49213457E+03,
                       7.79448918E+00]),
                NASA([421.76, 3000.00],
                     [-4.74526725E-01,  3.20862468E-02, -1.67340747E-05,
                       4.21365136E-09, -4.13155573E-13,  1.01934458E+04,
                       2.85865912E+01])))

species(name='aRO2',
        atoms='C:4 H:9 O:3',
        thermo=(NASA([10.00, 670.36],
                     [ 3.45405325E+00,  4.74751311E-02,  9.77507759E-06,
                      -6.31019603E-08,  3.75500067E-11, -3.46179186E+04,
                       1.39284976E+01]),
                NASA([670.36, 3000.00],
                     [ 5.04137652E+00,  5.19952978E-02, -3.16472789E-05,
                       9.22798587E-09, -1.03598915E-12, -3.51451112E+04,
                       4.56056770E+00])))

species(name='O2',
        atoms='O:2',
        thermo=(NASA([10.00, 605.96],
                     [ 3.50743498E+00, -4.43860349E-04,  1.45938058E-06,
                       1.61509333E-09, -2.32050052E-12, -9.24756224E+02,
                       4.72183634E+00]),
                NASA([605.96, 3000.00],
                     [ 2.87462882E+00,  2.17840991E-03, -1.18262921E-06,
                       2.86910493E-10, -2.53297146E-14, -8.19517838E+02,
                       7.69331810E+00])))

species(name='formic_acid',
        atoms='C:1 H:2 O:2',
        thermo=(NASA([10.00, 741.38],
                     [ 4.06855785E+00, -4.74562133E-03,  4.71797900E-05,
                      -6.07490052E-08,  2.51286794E-11, -4.66880837E+04,
                       6.53681035E+00]),
                NASA([741.38, 3000.00],
                     [ 1.13645847E+00,  1.74953124E-02, -1.08112403E-05,
                       3.08075326E-09, -3.34892658E-13, -4.64297918E+04,
                       1.86149484E+01])))

species(name='propene',
        atoms='C:3 H:6',
        thermo=(NASA([10.00, 519.53],
                     [ 3.98723879E+00,  4.72040503E-04,  6.51776229E-05,
                      -9.89891002E-08,  4.91141123E-11,  2.34623552E+03,
                       6.98071210E+00]),
                NASA([519.53, 3000.00],
                     [ 3.79893331E-01,  2.82457690E-02, -1.50108430E-05,
                       3.90894069E-09, -4.00521928E-13,  2.72106287E+03,
                       2.20218922E+01])))

species(name='aQOOHg',
        atoms='C:4 H:9 O:3',
        thermo=(NASA([10.00, 455.48],
                     [ 3.62522127E+00,  2.83222320E-02,  2.08527447E-04,
                      -5.67427418E-07,  4.35169138E-10, -2.76748351E+04,
                       1.26617758E+01]),
                NASA([455.48, 3000.00],
                     [ 5.13914202E+00,  5.96270859E-02, -4.14435328E-05,
                       1.34202375E-08, -1.63474553E-12, -2.82753914E+04,
                       1.46991116E+00])))

species(name='ibut_peroxyacid',
        atoms='C:4 H:8 O:3',
        thermo=(NASA([10.00, 1386.21],
                     [ 3.50995385E+00,  4.78670384E-02, -2.40781384E-05,
                       3.71046938E-09,  3.85442115E-13, -4.72751072E+04,
                       1.22017268E+01]),
                NASA([1386.21, 3000.00],
                     [ 1.24543146E+01,  3.02396862E-02, -1.38577031E-05,
                       3.05328904E-09, -2.63982457E-13, -5.05409905E+04,
                      -3.67061828E+01])))

species(name='HO2',
        atoms='H:1 O:2',
        thermo=(NASA([10.00, 891.11],
                     [ 4.02887004E+00, -1.75769289E-03,  1.08726004E-05,
                      -1.13812972E-08,  3.90113097E-12,  4.95165001E+02,
                       4.69302008E+00]),
                NASA([891.11, 3000.00],
                     [ 3.06571044E+00,  4.28505005E-03, -2.19325920E-06,
                       5.58882699E-10, -5.61246669E-14,  5.98557610E+02,
                       8.84564156E+00])))

species(name='CH3',
        atoms='C:1 H:3',
        thermo=(NASA([10.00, 616.77],
                     [ 3.98929952E+00,  5.45150461E-04,  9.01320092E-06,
                      -1.08320497E-08,  4.38985879E-12,  1.65859883E+04,
                       2.22446886E-01]),
                NASA([616.77, 3000.00],
                     [ 3.35928237E+00,  4.63117126E-03, -9.24365433E-07,
                      -9.02514624E-11,  3.56905106E-14,  1.66637014E+04,
                       2.95743732E+00])))

#-------------------------------------------------------------------------------
# Reaction data
#-------------------------------------------------------------------------------

# Reaction 1
chebyshev_reaction('aQOOH[O] (+ M) <=> aQOOHb (+ M)',
                   Tmin=180.0, Tmax=1500.0,
                   Pmin=(0.01, 'atm'), Pmax=(98.692, 'atm'),
                   coeffs=[[-9.21700e-01,  8.94400e-01, -4.22100e-01, -1.77300e-02,  2.92100e-03,  1.63200e-03,  1.16000e-04,  1.27100e-04],
                           [ 5.48100e+00,  2.06400e+00, -1.26000e-01, -4.73500e-02,  1.06600e-02,  4.06800e-04, -3.57300e-04, -1.29100e-05],
                           [ 4.38600e-01,  4.17200e-01,  9.07900e-02, -5.21500e-02, -4.77500e-03,  8.08900e-03,  9.84600e-04, -7.07400e-04],
                           [-9.81000e-02,  4.91900e-02,  1.11700e-01, -2.22300e-02, -2.01000e-02,  2.94800e-03,  3.02000e-03, -4.32700e-05],
                           [-3.97400e-02,  4.98800e-02,  4.04000e-02,  6.77800e-03, -1.19300e-02, -4.15300e-03,  1.62300e-03,  8.77400e-04],
                           [ 1.44200e-02,  2.65900e-02, -3.11500e-04,  1.13000e-02, -7.40800e-04, -4.01500e-03, -5.52300e-04,  6.73700e-04],
                           [-4.23500e-02,  3.13800e-03,  6.43600e-03,  7.10500e-03,  1.47400e-03, -1.54900e-03, -9.28300e-04,  4.45400e-05],
                           [-4.24600e-02, -1.78600e-02,  8.74900e-03,  4.65100e-03,  8.45500e-04, -3.65400e-04, -4.09500e-04, -1.42600e-04],
                           [ 3.23300e-03, -1.91700e-02, -1.66300e-03,  1.65800e-03,  9.49400e-04,  3.78900e-06, -7.31800e-05, -5.15300e-05],
                           [ 1.24900e-02, -3.53500e-03, -4.56600e-03,  2.84900e-05,  8.85400e-04,  1.69100e-04, -1.16500e-04, -7.52000e-06]])

# Reaction 2
chebyshev_reaction('aQOOHg (+ M) <=> aQOOHb (+ M)',
                   Tmin=180.0, Tmax=1500.0,
                   Pmin=(0.01, 'atm'), Pmax=(98.692, 'atm'),
                   coeffs=[[-4.22400e+00, -2.89700e-01, -4.56500e-01,  2.63800e-02,  7.85700e-03, -1.01000e-03,  1.20800e-04,  3.77100e-05],
                           [ 8.06800e+00,  2.12600e+00, -3.50400e-01, -7.67100e-02,  2.03700e-02,  3.97300e-03, -1.29500e-03,  9.25400e-05],
                           [ 4.74900e-01,  7.05000e-01,  8.97800e-02, -8.47500e-02, -1.13100e-02,  8.11900e-03,  1.24500e-03, -6.98900e-04],
                           [-2.12300e-01,  2.27100e-01,  9.83800e-02, -1.88700e-02, -1.83000e-02, -1.32100e-04,  2.69600e-03,  2.00100e-04],
                           [-7.61900e-02,  1.13600e-01,  4.41400e-02,  4.60500e-04, -5.20600e-03, -3.50900e-03,  1.42800e-04,  8.84400e-04],
                           [-3.80200e-02,  4.05000e-02,  2.57100e-02,  1.20400e-03, -4.57300e-04, -1.04800e-03, -1.17100e-03,  2.05700e-04],
                           [-3.89900e-02, -9.24500e-03,  1.62000e-02,  4.44000e-03, -1.35400e-03,  2.28300e-04, -4.94500e-04, -3.34500e-04],
                           [-2.84800e-02, -2.11300e-02,  6.08100e-03,  5.90000e-03, -9.92400e-04, -1.92700e-04,  1.42400e-04, -2.52100e-04],
                           [-1.35600e-02, -1.09200e-02, -2.82500e-04,  3.60200e-03,  2.41800e-04, -4.00500e-04,  1.68700e-04, -4.93800e-05],
                           [ 8.18800e-04,  1.42100e-03, -1.98100e-03,  5.90900e-04,  7.15700e-04, -9.56300e-05,  2.61600e-05,  1.71500e-05]])

# Reaction 3
chebyshev_reaction('aRO2 (+ M) <=> aQOOHb (+ M)',
                   Tmin=180.0, Tmax=1500.0,
                   Pmin=(0.01, 'atm'), Pmax=(98.692, 'atm'),
                   coeffs=[[-6.54600e+00,  9.87700e-01, -2.31500e-01, -8.45300e-03,  8.68400e-03,  5.63100e-04, -2.82300e-04,  3.23900e-05],
                           [ 1.06000e+01,  1.53800e+00, -3.03000e-01, -3.53900e-02,  1.08100e-02,  3.01100e-03, -1.63000e-04, -1.39900e-04],
                           [ 9.45500e-01,  6.80700e-01, -1.89000e-02, -5.32600e-02, -4.58300e-03,  5.54000e-03,  8.77200e-04, -4.22400e-04],
                           [-1.60100e-01,  1.16500e-01,  1.11000e-01, -3.48300e-02, -1.48200e-02,  3.76100e-03,  1.80500e-03, -2.50600e-04],
                           [-1.98900e-01, -9.09100e-03,  7.52100e-02, -4.81400e-03, -1.14100e-02, -9.03100e-04,  1.53500e-03,  3.01800e-04],
                           [-7.58800e-02,  2.42000e-02,  1.47700e-02,  8.21500e-03, -2.98800e-03, -3.11400e-03,  3.24300e-04,  5.66800e-04],
                           [-1.32300e-02,  2.19200e-02, -3.06400e-03,  7.87200e-03,  3.54600e-04, -1.97900e-03, -4.28400e-04,  2.93500e-04],
                           [ 2.62600e-03, -8.19500e-03,  1.57200e-03,  5.33600e-03, -2.52300e-04, -4.95000e-04, -3.21300e-04, -4.68200e-05],
                           [ 2.62100e-03, -1.75100e-02,  3.61100e-03,  2.83400e-03, -1.93400e-04, -1.01900e-04, -8.44400e-05, -9.78700e-05],
                           [-9.59100e-04, -5.74700e-03,  7.93000e-04,  2.95400e-04,  7.86700e-04, -1.08100e-04, -9.54400e-05, -1.13300e-05]])

# Reaction 4
chebyshev_reaction('aadduct (+ M) <=> aQOOHb (+ M)',
                   Tmin=180.0, Tmax=1500.0,
                   Pmin=(0.01, 'atm'), Pmax=(98.692, 'atm'),
                   coeffs=[[-7.40000e+00,  1.12800e+00, -2.65800e-01, -6.26900e-03,  6.80000e-03,  1.69600e-04, -2.55200e-04,  5.38700e-05],
                           [ 8.06100e+00,  1.65100e+00, -2.85300e-01, -4.38500e-02,  1.03700e-02,  3.37300e-03,  6.16400e-05, -7.18100e-05],
                           [ 1.05000e+00,  5.87800e-01,  5.33900e-02, -6.65900e-02, -9.26000e-03,  6.02400e-03,  1.15300e-03, -4.23500e-04],
                           [-1.02400e-02,  6.64100e-02,  1.35100e-01, -2.65600e-02, -1.92500e-02,  2.46200e-03,  2.34800e-03, -1.16200e-04],
                           [-3.93700e-02,  1.77800e-02,  5.50900e-02,  7.85800e-03, -1.09700e-02, -3.19300e-03,  1.49100e-03,  6.04400e-04],
                           [-6.94700e-03,  4.10500e-02,  2.73400e-03,  1.27300e-02, -1.06300e-03, -3.78200e-03, -2.59200e-04,  6.64200e-04],
                           [-2.18800e-02,  6.40700e-03,  6.75900e-04,  7.57300e-03,  1.07400e-03, -1.55400e-03, -7.56400e-04,  1.57600e-04],
                           [-2.28700e-02, -2.28900e-02,  5.47400e-03,  4.30400e-03,  4.95600e-04, -3.94000e-04, -3.50500e-04, -1.20100e-04],
                           [-1.01400e-02, -1.73600e-02,  2.39900e-03,  2.00900e-03,  8.22500e-04, -1.89600e-04, -1.44900e-04, -6.58100e-05],
                           [ 3.53400e-03, -1.76200e-04, -1.92800e-03,  1.50900e-04,  1.08100e-03,  3.49200e-05, -1.51600e-04, -1.89500e-05]])

# Reaction 5
chebyshev_reaction('O2 + aR (+ M) <=> aQOOHb (+ M)',
                   Tmin=180.0, Tmax=1500.0,
                   Pmin=(0.01, 'atm'), Pmax=(98.692, 'atm'),
                   coeffs=[[ 4.58800e+00,  1.75500e-01, -5.75800e-01, -1.53300e-03,  3.61700e-02, -4.64000e-03, -3.79900e-03,  1.53600e-03],
                           [ 7.22700e-01,  1.02500e+00,  1.25700e-01, -1.25000e-01, -2.66200e-02,  1.91900e-02,  3.24300e-03, -3.28700e-03],
                           [ 3.64600e-01,  2.83100e-01,  1.26500e-01, -6.43400e-03, -3.10600e-02, -4.74500e-03,  5.93900e-03,  1.35200e-03],
                           [ 9.74900e-02,  1.02700e-01,  6.22100e-02,  1.44300e-02, -9.83700e-03, -7.59100e-03,  3.43500e-04,  1.88800e-03],
                           [ 3.17400e-02,  5.85400e-02,  2.71500e-02,  7.86400e-03, -5.30000e-04, -2.92500e-03, -1.48700e-03,  3.28600e-04],
                           [-1.14600e-03,  1.80700e-02,  1.13700e-02,  5.32000e-03,  1.30900e-03, -7.49800e-04, -9.88100e-04, -2.76300e-04],
                           [-2.11700e-02, -1.38200e-02,  2.34400e-03,  5.68900e-03,  1.83800e-03, -5.07100e-04, -5.60800e-04, -1.68600e-04],
                           [-1.88200e-02, -1.94700e-02, -2.42200e-03,  4.04700e-03,  2.00500e-03, -2.30900e-04, -4.22200e-04, -7.67300e-05],
                           [-9.04900e-03, -1.03600e-02, -2.52700e-03,  1.30800e-03,  1.20300e-03,  2.17200e-04, -1.64600e-04, -1.00500e-04],
                           [ 1.15200e-03,  2.34300e-03, -1.20500e-03, -9.51800e-04,  3.48100e-04,  4.62700e-04,  4.83400e-05, -9.61900e-05]])
#  aQOOHb(+M) <=> aQOOH[O](+M)                         1.000e+00 0.000     0.000
#      TCHEB/ 180.000   1500.000 /
#      PCHEB/ 0.010     98.692   /
#      CHEB/ 10 8/
#      CHEB/ -6.519e+00   8.944e-01    -4.221e-01   -1.773e-02   2.921e-03   /
#      CHEB/ 1.632e-03    1.160e-04    1.271e-04    8.527e+00    2.064e+00   /
#      CHEB/ -1.260e-01   -4.735e-02   1.066e-02    4.068e-04    -3.573e-04  /
#      CHEB/ -1.291e-05   5.165e-01    4.172e-01    9.079e-02    -5.215e-02  /
#      CHEB/ -4.775e-03   8.089e-03    9.846e-04    -7.074e-04   -5.209e-02  /
#      CHEB/ 4.919e-02    1.117e-01    -2.223e-02   -2.010e-02   2.948e-03   /
#      CHEB/ 3.020e-03    -4.327e-05   -2.437e-02   4.988e-02    4.040e-02   /
#      CHEB/ 6.778e-03    -1.193e-02   -4.153e-03   1.623e-03    8.774e-04   /
#      CHEB/ 1.919e-02    2.659e-02    -3.115e-04   1.130e-02    -7.408e-04  /
#      CHEB/ -4.015e-03   -5.523e-04   6.737e-04    -4.054e-02   3.138e-03   /
#      CHEB/ 6.436e-03    7.105e-03    1.474e-03    -1.549e-03   -9.283e-04  /
#      CHEB/ 4.454e-05    -4.174e-02   -1.786e-02   8.749e-03    4.651e-03   /
#      CHEB/ 8.455e-04    -3.654e-04   -4.095e-04   -1.426e-04   3.428e-03   /
#      CHEB/ -1.917e-02   -1.663e-03   1.658e-03    9.494e-04    3.789e-06   /
#      CHEB/ -7.318e-05   -5.153e-05   1.249e-02    -3.535e-03   -4.566e-03  /
#      CHEB/ 2.849e-05    8.854e-04    1.691e-04    -1.165e-04   -7.520e-06  /

# Reaction 6
chebyshev_reaction('aQOOHg (+ M) <=> aQOOH[O] (+ M)',
                   Tmin=180.0, Tmax=1500.0,
                   Pmin=(0.01, 'atm'), Pmax=(98.692, 'atm'),
                   coeffs=[[-3.92200e-01,  6.36500e-01, -2.87700e-01,  1.12700e-02,  4.39000e-03,  1.17200e-03,  2.92200e-04,  6.16800e-06],
                           [ 5.79600e+00,  1.31100e+00, -2.41300e-01, -1.83800e-02,  8.16000e-03, -1.15000e-03,  6.38000e-06,  3.56000e-04],
                           [ 1.65500e-02,  6.96500e-01,  2.76100e-02, -2.03100e-02,  1.12300e-02,  1.86800e-03, -1.78900e-03, -3.62900e-04],
                           [-3.14300e-01,  1.97900e-01,  5.14900e-04, -3.23900e-02,  4.46900e-04,  5.99500e-03,  7.79500e-04, -5.18100e-04],
                           [-3.00600e-02,  1.18300e-01,  1.12200e-02, -2.71900e-02, -9.82700e-03,  2.64100e-04,  1.33800e-03,  2.59400e-04],
                           [ 2.80400e-04,  4.03400e-02,  2.75100e-02, -3.70400e-03, -3.56200e-03, -1.30500e-03, -1.50500e-04,  1.60000e-04],
                           [-5.50800e-02,  1.04600e-03,  2.16500e-02,  1.30600e-03, -1.94100e-03, -8.61100e-05, -1.44100e-05,  1.25000e-04],
                           [-4.65800e-02, -7.72800e-03,  1.61200e-02,  4.64900e-03, -2.49700e-03, -7.63000e-04, -7.38300e-05,  3.71900e-05],
                           [ 1.91100e-03, -1.74600e-02,  1.30400e-03,  4.77900e-03,  4.47300e-04, -1.27000e-04, -2.71700e-05, -1.29300e-04],
                           [ 1.08200e-02, -5.44200e-03, -3.62900e-03,  1.42400e-03,  7.27400e-04,  2.30200e-07,  4.40400e-05,  8.34600e-06]])

# Reaction 7
chebyshev_reaction('aRO2 (+ M) <=> aQOOH[O] (+ M)',
                   Tmin=180.0, Tmax=1500.0,
                   Pmin=(0.01, 'atm'), Pmax=(98.692, 'atm'),
                   coeffs=[[-3.12800e+00,  1.63300e+00, -2.58300e-01, -2.36700e-03,  2.83100e-03,  1.66400e-03, -2.46200e-04, -1.18400e-04],
                           [ 1.01300e+01,  1.24900e+00, -1.73300e-02, -1.86300e-02, -1.96300e-03, -5.85900e-04,  3.62100e-04,  1.96900e-05],
                           [-7.53800e-01,  4.38200e-01,  1.18700e-02, -4.63700e-03,  5.64900e-03, -5.57000e-04, -5.35900e-04, -6.51500e-05],
                           [-3.14600e-01,  1.36000e-01,  5.41100e-04, -1.08500e-02,  4.59400e-03,  2.26000e-03, -3.51200e-04, -2.11200e-04],
                           [-1.00000e-01,  4.32000e-02, -3.06900e-03, -1.26500e-02, -1.10800e-04,  2.61500e-03,  3.35800e-04, -1.89100e-04],
                           [-1.54900e-02,  5.99400e-03,  5.92400e-03, -8.11200e-03, -3.14000e-03,  1.18900e-03,  6.19700e-04, -4.69400e-05],
                           [-2.03400e-02,  1.34000e-02,  1.49000e-02, -4.29900e-03, -3.88400e-03, -1.03200e-04,  5.69800e-04,  8.19100e-05],
                           [-1.27200e-02,  1.35400e-03,  1.40500e-02,  5.65700e-04, -2.87000e-03, -6.28000e-04,  2.56300e-04,  1.33300e-04],
                           [ 9.16200e-03, -1.61300e-02,  5.49900e-03,  3.27600e-03, -7.50800e-04, -7.09200e-04,  3.89500e-05,  6.77700e-05],
                           [ 7.69700e-03, -1.00400e-02, -6.37300e-04,  3.16100e-03,  4.31000e-05, -4.04100e-04, -1.17100e-04,  6.50800e-05]])

# Reaction 8
chebyshev_reaction('aadduct (+ M) <=> aQOOH[O] (+ M)',
                   Tmin=180.0, Tmax=1500.0,
                   Pmin=(0.01, 'atm'), Pmax=(98.692, 'atm'),
                   coeffs=[[-3.68800e+00,  1.81800e+00, -2.67200e-01, -9.17800e-03,  1.67700e-03,  1.72000e-03, -5.99700e-05, -1.16200e-04],
                           [ 6.62400e+00,  1.30000e+00, -9.67000e-03, -1.69800e-02, -1.69700e-03, -1.12800e-03,  3.58300e-04,  7.59900e-05],
                           [-2.58700e-01,  3.89300e-01,  2.26700e-02, -9.35800e-03,  6.00700e-03,  5.19000e-04, -5.88500e-04, -1.34100e-04],
                           [-4.81600e-02,  1.01900e-01,  1.64100e-02, -1.76300e-02,  1.56800e-03,  3.35000e-03,  2.12300e-05, -2.55500e-04],
                           [ 5.80300e-02,  3.35500e-02,  1.09000e-02, -1.39200e-02, -4.23400e-03,  2.40100e-03,  8.63200e-04, -1.29800e-04],
                           [ 4.38300e-02,  3.32100e-03,  1.26500e-02, -3.96000e-03, -5.42300e-03,  3.04900e-05,  8.80100e-04,  9.22600e-05],
                           [-3.34100e-02,  9.02400e-03,  1.67400e-02,  1.54000e-03, -4.15300e-03, -1.31000e-03,  4.77300e-04,  2.22900e-04],
                           [-4.07000e-02, -4.22600e-03,  1.20900e-02,  4.65100e-03, -1.88600e-03, -1.29300e-03,  1.15900e-05,  1.94700e-04],
                           [-2.49100e-03, -1.87600e-02,  1.24800e-03,  4.52900e-03,  4.57800e-04, -7.61600e-04, -1.68600e-04,  5.91500e-05],
                           [ 1.36600e-02, -8.96700e-03, -3.63400e-03,  2.53900e-03,  9.71600e-04, -2.56900e-04, -2.22500e-04,  2.42600e-05]])

# Reaction 9
chebyshev_reaction('O2 + aR (+ M) <=> aQOOH[O] (+ M)',
                   Tmin=180.0, Tmax=1500.0,
                   Pmin=(0.01, 'atm'), Pmax=(98.692, 'atm'),
                   coeffs=[[ 6.66900e+00,  9.96400e-01, -3.15500e-01, -5.50000e-03,  1.41200e-02, -4.89200e-03, -2.36000e-03,  8.02800e-04],
                           [ 9.55800e-03,  5.03600e-01,  5.56300e-02, -5.63500e-02, -5.40400e-03,  1.11300e-02,  7.22700e-04, -1.70700e-03],
                           [-6.37600e-02,  1.57000e-01,  7.09000e-02, -1.34800e-03, -1.36900e-02, -2.48800e-04,  3.56800e-03,  3.30400e-04],
                           [-2.11500e-02,  8.22700e-02,  3.49700e-02,  1.85600e-03, -6.87400e-03, -2.73100e-03,  9.99000e-04,  8.91200e-04],
                           [ 3.98900e-02,  5.77800e-02,  1.62400e-02, -2.14500e-03, -3.06300e-03, -1.19700e-03, -2.02100e-04,  2.55000e-04],
                           [ 4.50600e-02,  1.83300e-02,  7.91800e-03,  5.67400e-04, -1.46300e-03, -9.74000e-04, -3.00000e-04,  4.38900e-05],
                           [-3.88400e-02, -9.18000e-03,  5.71600e-03,  6.20500e-03,  8.14700e-04, -1.08300e-03, -3.81300e-04,  1.05800e-04],
                           [-4.06400e-02, -1.65200e-02,  7.45400e-04,  5.46600e-03,  1.76100e-03, -7.24900e-04, -4.92500e-04,  6.23300e-05],
                           [ 8.23100e-03, -1.21300e-02, -2.89200e-03,  1.32300e-03,  9.59500e-04, -1.07600e-04, -3.03500e-04, -6.96200e-05],
                           [ 1.42600e-02,  4.66900e-04, -2.39400e-03, -1.31300e-03,  3.26000e-04,  3.83400e-04, -6.69200e-05, -1.33200e-04]])
#  aQOOHb(+M) <=> aQOOHg(+M)                           1.000e+00 0.000     0.000
#      TCHEB/ 180.000   1500.000 /
#      PCHEB/ 0.010     98.692   /
#      CHEB/ 10 8/
#      CHEB/ -8.070e+00   -2.897e-01   -4.565e-01   2.638e-02    7.857e-03   /
#      CHEB/ -1.010e-03   1.208e-04    3.771e-05    9.888e+00    2.126e+00   /
#      CHEB/ -3.504e-01   -7.671e-02   2.037e-02    3.973e-03    -1.295e-03  /
#      CHEB/ 9.254e-05    6.980e-01    7.050e-01    8.978e-02    -8.475e-02  /
#      CHEB/ -1.131e-02   8.119e-03    1.245e-03    -6.989e-04   -1.182e-01  /
#      CHEB/ 2.271e-01    9.838e-02    -1.887e-02   -1.830e-02   -1.321e-04  /
#      CHEB/ 2.696e-03    2.001e-04    -4.799e-02   1.136e-01    4.414e-02   /
#      CHEB/ 4.605e-04    -5.206e-03   -3.509e-03   1.428e-04    8.844e-04   /
#      CHEB/ -3.015e-02   4.050e-02    2.571e-02    1.204e-03    -4.573e-04  /
#      CHEB/ -1.048e-03   -1.171e-03   2.057e-04    -3.648e-02   -9.245e-03  /
#      CHEB/ 1.620e-02    4.440e-03    -1.354e-03   2.283e-04    -4.945e-04  /
#      CHEB/ -3.345e-04   -2.775e-02   -2.113e-02   6.081e-03    5.900e-03   /
#      CHEB/ -9.924e-04   -1.927e-04   1.424e-04    -2.521e-04   -1.354e-02  /
#      CHEB/ -1.092e-02   -2.825e-04   3.602e-03    2.418e-04    -4.005e-04  /
#      CHEB/ 1.687e-04    -4.938e-05   6.768e-04    1.421e-03    -1.981e-03  /
#      CHEB/ 5.909e-04    7.157e-04    -9.563e-05   2.616e-05    1.715e-05   /
#  aQOOH[O](+M) <=> aQOOHg(+M)                         1.000e+00 0.000     0.000
#      TCHEB/ 180.000   1500.000 /
#      PCHEB/ 0.010     98.692   /
#      CHEB/ 10 8/
#      CHEB/ 1.360e+00    6.365e-01    -2.877e-01   1.127e-02    4.390e-03   /
#      CHEB/ 1.172e-03    2.922e-04    6.168e-06    4.570e+00    1.311e+00   /
#      CHEB/ -2.413e-01   -1.838e-02   8.160e-03    -1.150e-03   6.380e-06   /
#      CHEB/ 3.560e-04    1.618e-01    6.965e-01    2.761e-02    -2.031e-02  /
#      CHEB/ 1.123e-02    1.868e-03    -1.789e-03   -3.629e-04   -2.662e-01  /
#      CHEB/ 1.979e-01    5.149e-04    -3.239e-02   4.469e-04    5.995e-03   /
#      CHEB/ 7.795e-04    -5.181e-04   -1.724e-02   1.183e-01    1.122e-02   /
#      CHEB/ -2.719e-02   -9.827e-03   2.641e-04    1.338e-03    2.594e-04   /