units(length='cm', time='s', quantity='mol', act_energy='kcal/mol')

ideal_gas(name='gas',
          elements="H D T C Ci O Oi N Ne Ar He Si S F Cl Br I X",
          species="""propene3ol       OH               disub_c4ether
                     H2O              disub_epoxy      gQOOHa
                     propene1ol       gQOOHb           ipropylOOH
                     galdoxy          galkene          CH2O
                     O2               gRO2             gQOOHg
                     gR               galdol           monosub_c4ether
                     HO2              gQOOH[O]""",
          reactions='all',
          initial_state=state(temperature=300.0, pressure=OneAtm))

#-------------------------------------------------------------------------------
# Element data
#-------------------------------------------------------------------------------

element(symbol='Ci', atomic_mass=13.003)
element(symbol='D', atomic_mass=2.014)
element(symbol='Oi', atomic_mass=18.0)
element(symbol='T', atomic_mass=3.016)
element(symbol='X', atomic_mass=195.083)
#-------------------------------------------------------------------------------
# Species data
#-------------------------------------------------------------------------------

species(name='propene3ol',
        atoms='C:3 H:6 O:1',
        thermo=(NASA([10.00, 444.81],
                     [ 3.92769709E+00,  4.89977303E-03,  1.13094874E-04,
                      -2.59008187E-07,  1.86205760E-10, -1.61027395E+04,
                       9.90805416E+00]),
                NASA([444.81, 3000.00],
                     [ 2.61720343E+00,  3.01777872E-02, -1.76511625E-05,
                       5.14864061E-09, -5.91153761E-13, -1.61196400E+04,
                       1.36683107E+01])))

species(name='OH',
        atoms='H:1 O:1',
        thermo=(NASA([10.00, 984.14],
                     [ 3.49686242E+00,  1.83973160E-04, -9.97634499E-07,
                       1.56942783E-09, -6.10128175E-13,  3.41673934E+03,
                       1.48093120E+00]),
                NASA([984.14, 3000.00],
                     [ 3.45221464E+00, -2.95124034E-04,  7.39418622E-07,
                      -2.89309866E-10,  3.53041498E-14,  3.45751599E+03,
                       1.85813897E+00])))

species(name='disub_c4ether',
        atoms='C:4 H:8 O:2',
        thermo=(NASA([10.00, 413.50],
                     [ 3.78241323E+00,  1.89501763E-02,  8.65302396E-05,
                      -1.80580575E-07,  1.13656264E-10, -4.05712329E+04,
                       1.09982450E+01]),
                NASA([413.50, 3000.00],
                     [ 4.29420885E-01,  5.13851903E-02, -3.11292293E-05,
                       9.11498284E-09, -1.03192718E-12, -4.02939386E+04,
                       2.42134976E+01])))

species(name='H2O',
        atoms='H:2 O:1',
        thermo=(NASA([10.00, 773.84],
                     [ 4.00473541E+00, -2.39729134E-04,  8.11862955E-07,
                       1.47891862E-09, -1.19783539E-12, -3.03533807E+04,
                      -9.96254147E-02]),
                NASA([773.84, 3000.00],
                     [ 3.52133374E+00,  1.05377009E-03,  6.40722099E-07,
                      -3.86240235E-10,  5.49243294E-14, -3.02424794E+04,
                       2.34173094E+00])))

species(name='disub_epoxy',
        atoms='C:4 H:8 O:2',
        thermo=(NASA([10.00, 549.41],
                     [ 3.89863211E+00,  5.97532637E-03,  1.66685676E-04,
                      -3.10743768E-07,  1.78330192E-10, -3.68344195E+04,
                       1.13847308E+01]),
                NASA([549.41, 3000.00],
                     [-6.40277648E-01,  6.05960003E-02, -4.13427220E-05,
                       1.31555461E-08, -1.57685017E-12, -3.66613026E+04,
                       2.76005436E+01])))

species(name='gQOOHa',
        atoms='C:4 H:9 O:3',
        thermo=(NASA([10.00, 160.74],
                     [ 3.80808147E+00,  2.31043884E-02,  5.26945984E-04,
                      -3.11500696E-06,  6.03881958E-09, -2.56197813E+04,
                       1.17645316E+01]),
                NASA([160.74, 3000.00],
                     [ 2.90630300E+00,  6.50241173E-02, -4.60073244E-05,
                       1.51330930E-08, -1.87074267E-12, -2.56159568E+04,
                       1.36838819E+01])))

species(name='propene1ol',
        atoms='C:3 H:6 O:1',
        thermo=(NASA([10.00, 459.42],
                     [ 3.91245344E+00,  5.85800161E-03,  1.15412006E-04,
                      -2.68014417E-07,  1.91800131E-10, -2.01559274E+04,
                       8.14807684E+00]),
                NASA([459.42, 3000.00],
                     [ 3.14049093E+00,  2.95550898E-02, -1.73843684E-05,
                       5.11506211E-09, -5.92966137E-13, -2.02641499E+04,
                       9.32215170E+00])))

species(name='gQOOHb',
        atoms='C:4 H:9 O:3',
        thermo=(NASA([10.00, 1018.67],
                     [ 3.99028351E+00,  4.29665712E-02,  2.28338778E-05,
                      -5.67914439E-08,  2.29383258E-11, -2.28481153E+04,
                       1.20326731E+01]),
                NASA([1018.67, 3000.00],
                     [ 1.38304153E+01,  3.88527019E-02, -2.19473905E-05,
                       5.78719895E-09, -5.85097740E-13, -2.66442001E+04,
                      -4.44147388E+01])))

species(name='ipropylOOH',
        atoms='C:3 H:7 O:2',
        thermo=(NASA([10.00, 405.01],
                     [ 3.30075623E+00,  7.58672756E-02, -3.35754269E-04,
                       8.05972164E-07, -6.68864582E-10, -1.32973808E+03,
                       1.43372849E+01]),
                NASA([405.01, 3000.00],
                     [ 2.51742509E+00,  3.72760950E-02, -2.12450220E-05,
                       5.83593926E-09, -6.22110649E-13, -8.86330469E+02,
                       2.20991392E+01])))

species(name='galdoxy',
        atoms='C:4 H:7 O:2',
        thermo=(NASA([10.00, 209.62],
                     [ 3.82641108E+00,  1.84758886E-02,  3.43073800E-04,
                      -1.82817005E-06,  2.98516720E-09, -1.67228750E+04,
                       1.17972706E+01]),
                NASA([209.62, 3000.00],
                     [ 4.22049016E+00,  4.03370149E-02, -2.36129482E-05,
                       6.72979114E-09, -7.47862493E-13, -1.68039448E+04,
                       8.97211724E+00])))

species(name='galkene',
        atoms='C:4 H:8 O:1',
        thermo=(NASA([10.00, 383.47],
                     [ 3.84035604E+00,  1.20378740E-02,  1.87486319E-04,
                      -5.44759148E-07,  4.80711015E-10, -2.11846617E+04,
                       1.02570291E+01]),
                NASA([383.47, 3000.00],
                     [ 4.00413385E+00,  3.79025144E-02, -2.15435710E-05,
                       6.15213311E-09, -6.97446345E-13, -2.13999510E+04,
                       6.98052628E+00])))

species(name='CH2O',
        atoms='C:1 H:2 O:1',
        thermo=(NASA([10.00, 601.31],
                     [ 4.03190845E+00, -1.93233367E-03,  8.89743345E-06,
                       2.98105926E-09, -7.90813886E-12, -1.42276270E+04,
                       3.47574660E+00]),
                NASA([601.31, 3000.00],
                     [ 1.40134195E+00,  9.48858016E-03, -4.43088317E-06,
                       9.48452194E-10, -7.43790219E-14, -1.38013869E+04,
                       1.57423780E+01])))

species(name='O2',
        atoms='O:2',
        thermo=(NASA([10.00, 605.96],
                     [ 3.50743498E+00, -4.43860349E-04,  1.45938058E-06,
                       1.61509333E-09, -2.32050052E-12, -9.24756224E+02,
                       4.72183634E+00]),
                NASA([605.96, 3000.00],
                     [ 2.87462882E+00,  2.17840991E-03, -1.18262921E-06,
                       2.86910493E-10, -2.53297146E-14, -8.19517838E+02,
                       7.69331810E+00])))

species(name='gRO2',
        atoms='C:4 H:9 O:3',
        thermo=(NASA([10.00, 177.33],
                     [ 3.70632176E+00,  3.49733664E-02,  4.64036392E-04,
                      -3.18637835E-06,  6.38178607E-09, -2.72174421E+04,
                       1.24459269E+01]),
                NASA([177.33, 3000.00],
                     [ 4.82062697E+00,  5.17179689E-02, -3.18386818E-05,
                       9.52247045E-09, -1.10180288E-12, -2.73228127E+04,
                       7.14082953E+00])))

species(name='gQOOHg',
        atoms='C:4 H:9 O:3',
        thermo=(NASA([10.00, 475.03],
                     [ 3.42273720E+00,  4.98344215E-02,  6.47820920E-05,
                      -2.49842966E-07,  1.98636537E-10, -2.09643684E+04,
                       1.41578583E+01]),
                NASA([475.03, 3000.00],
                     [ 5.94049074E+00,  5.53778585E-02, -3.71708255E-05,
                       1.17540477E-08, -1.40812095E-12, -2.15053227E+04,
                       7.09201218E-01])))

species(name='gR',
        atoms='C:4 H:9 O:1',
        thermo=(NASA([10.00, 638.24],
                     [ 3.37074633E+00,  5.17529751E-02, -6.54872940E-05,
                       6.88084237E-08, -3.21569794E-11, -1.22681913E+04,
                       1.14339669E+01]),
                NASA([638.24, 3000.00],
                     [ 3.99410860E+00,  4.06314915E-02, -2.23932510E-05,
                       6.08356263E-09, -6.49884708E-13, -1.22008166E+04,
                       9.85769960E+00])))

species(name='galdol',
        atoms='C:4 H:8 O:2',
        thermo=(NASA([10.00, 506.68],
                     [ 3.85380874E+00,  9.21272695E-03,  1.86712348E-04,
                      -3.96417049E-07,  2.55528268E-10, -4.48009013E+04,
                       1.24312743E+01]),
                NASA([506.68, 3000.00],
                     [ 1.49710213E+00,  5.65979142E-02, -3.87709084E-05,
                       1.23682052E-08, -1.48287964E-12, -4.49315107E+04,
                       1.85531759E+01])))

species(name='monosub_c4ether',
        atoms='C:4 H:8 O:2',
        thermo=(NASA([10.00, 380.36],
                     [ 3.47743996E+00,  6.08051311E-02, -2.78518945E-04,
                       8.23182713E-07, -7.87158031E-10, -3.38490724E+04,
                       1.06415154E+01]),
                NASA([380.36, 3000.00],
                     [-1.09346901E+00,  5.35985968E-02, -3.21081420E-05,
                       9.20818293E-09, -1.01830294E-12, -3.31015124E+04,
                       3.35312368E+01])))

species(name='HO2',
        atoms='H:1 O:2',
        thermo=(NASA([10.00, 891.11],
                     [ 4.02887004E+00, -1.75769289E-03,  1.08726004E-05,
                      -1.13812972E-08,  3.90113097E-12,  4.95165001E+02,
                       4.69302008E+00]),
                NASA([891.11, 3000.00],
                     [ 3.06571044E+00,  4.28505005E-03, -2.19325920E-06,
                       5.58882699E-10, -5.61246669E-14,  5.98557610E+02,
                       8.84564156E+00])))

species(name='gQOOH[O]',
        atoms='C:4 H:9 O:3',
        thermo=(NASA([10.00, 535.23],
                     [ 3.83107445E+00,  1.02302002E-02,  2.29377261E-04,
                      -4.59095575E-07,  2.77765018E-10, -1.77384177E+04,
                       1.41034859E+01]),
                NASA([535.23, 3000.00],
                     [-4.19283096E-01,  7.69784620E-02, -5.57279000E-05,
                       1.81378295E-08, -2.18295635E-12, -1.77845311E+04,
                       2.72711816E+01])))

#-------------------------------------------------------------------------------
# Reaction data
#-------------------------------------------------------------------------------

# Reaction 1
chebyshev_reaction('gQOOH[O] (+ M) <=> gRO2 (+ M)',
                   Tmin=180.0, Tmax=1500.0,
                   Pmin=(0.01, 'atm'), Pmax=(98.692, 'atm'),
                   coeffs=[[ 5.33000e+00,  1.86000e+00, -6.40300e-02, -1.17900e-02, -1.74000e-03, -1.79800e-03, -7.57000e-04,  1.46500e-04],
                           [-5.33400e+00,  1.52600e-01,  4.00200e-02,  1.15300e-03, -2.31900e-03,  5.51500e-04,  2.96500e-04, -1.63900e-04],
                           [-2.95500e+00, -5.16100e-02, -3.43400e-02, -1.19700e-02, -2.82800e-03, -3.01700e-04,  1.39400e-04,  1.22300e-04],
                           [-1.50500e+00, -3.70900e-02, -1.56500e-02, -3.96600e-03,  9.05200e-05,  2.53900e-04,  8.47700e-05,  5.36300e-05],
                           [-7.42800e-01, -3.23200e-02, -6.62800e-03, -1.03800e-03,  8.07400e-04,  5.40100e-04,  2.23400e-04,  4.62900e-05],
                           [-3.45400e-01, -3.69100e-02, -7.84300e-03, -1.60000e-03,  3.97900e-04,  3.33000e-04,  1.01200e-04, -6.81100e-06],
                           [-1.78000e-01, -2.05500e-02, -4.11500e-03, -1.26100e-03, -8.16100e-05,  9.21100e-05,  2.06100e-05, -1.25800e-05],
                           [-7.23600e-02, -7.81000e-03, -1.42600e-03, -7.00400e-04, -5.95100e-04, -6.25200e-05,  8.99500e-05, -6.89400e-06],
                           [ 2.11200e-02, -7.16000e-03, -6.19200e-03, -1.37900e-03,  1.77000e-04,  3.34000e-05, -1.26800e-04, -2.24600e-06],
                           [-9.75300e-03,  1.50700e-02,  3.78200e-03,  2.83700e-04, -6.71300e-04, -1.54100e-04,  1.00600e-04,  1.06200e-05]])

# Reaction 2
chebyshev_reaction('gQOOHa (+ M) <=> gRO2 (+ M)',
                   Tmin=180.0, Tmax=1500.0,
                   Pmin=(0.01, 'atm'), Pmax=(98.692, 'atm'),
                   coeffs=[[ 8.06600e-01,  4.91800e-01, -3.20700e-02,  8.03300e-03,  9.33300e-04, -3.04000e-04,  2.03000e-05,  1.74000e-05],
                           [ 2.84700e+00,  7.86400e-01, -2.56400e-02,  9.75000e-03,  2.03500e-03, -3.77000e-04,  1.16500e-05,  2.55300e-05],
                           [-2.23200e+00,  3.48800e-01,  4.05200e-02,  1.82100e-03,  1.24100e-03,  2.06200e-04, -2.64400e-05,  2.94100e-06],
                           [-1.69400e+00, -3.88100e-02,  5.90800e-02,  3.94300e-03, -3.30900e-04,  4.79000e-04,  4.18900e-05, -1.95600e-05],
                           [-1.05200e+00, -2.14200e-01,  2.16000e-02,  9.39200e-03, -2.30800e-04,  1.29800e-04,  1.30000e-04, -8.99000e-06],
                           [-4.91700e-01, -2.04200e-01, -2.51800e-02,  7.01800e-03,  1.52100e-03, -1.49300e-04,  6.63400e-05,  2.19000e-05],
                           [-2.26400e-01, -1.14800e-01, -4.36100e-02, -2.21200e-03,  2.14700e-03,  1.59700e-04, -6.11400e-05,  1.63400e-05],
                           [-3.88300e-02, -2.80400e-02, -3.23700e-02, -9.42600e-03,  4.25200e-04,  5.36900e-04, -4.03600e-05, -2.29500e-05],
                           [ 2.30600e-02,  2.41000e-02, -1.01900e-02, -9.38700e-03, -1.97000e-03,  3.28400e-04,  9.48600e-05, -2.72400e-05],
                           [ 2.33000e-02,  4.12600e-02,  7.02400e-03, -4.08100e-03, -2.87300e-03, -3.33000e-04,  1.32300e-04,  2.37900e-05]])

# Reaction 3
chebyshev_reaction('gQOOHg (+ M) <=> gRO2 (+ M)',
                   Tmin=180.0, Tmax=1500.0,
                   Pmin=(0.01, 'atm'), Pmax=(98.692, 'atm'),
                   coeffs=[[ 3.43300e+00,  8.47500e-01, -6.75700e-02,  2.76800e-02, -1.83400e-03, -6.57400e-04,  1.00300e-04, -6.63700e-06],
                           [-4.65800e+00,  9.46000e-01,  4.37500e-02,  5.57100e-03,  6.77300e-03, -1.92900e-03, -1.48600e-04,  1.73000e-04],
                           [-3.63700e+00, -9.28900e-02,  1.14300e-01,  1.10500e-02, -1.69500e-03,  1.72000e-03, -3.85300e-04, -8.40400e-05],
                           [-1.97600e+00, -4.37200e-01, -1.20600e-02,  2.83200e-02, -3.68100e-04,  3.51100e-05,  5.77700e-04, -2.28600e-04],
                           [-8.74400e-01, -2.26300e-01, -9.66000e-02,  1.00200e-03,  7.48100e-03, -3.05000e-05, -3.34100e-06,  8.06500e-05],
                           [-3.51600e-01, -1.74900e-03, -4.70600e-02, -2.71600e-02,  1.87300e-03,  2.83900e-03, -2.81700e-04, -3.53800e-05],
                           [-1.51300e-01,  3.79600e-02,  1.52800e-02, -1.38400e-02, -8.11900e-03,  1.37100e-03,  9.64100e-04, -1.31300e-04],
                           [-8.63000e-02, -9.06500e-03,  1.34400e-02,  9.93500e-03, -5.52300e-03, -2.55000e-03,  9.16000e-04,  3.38500e-04],
                           [-1.57300e-02, -3.22800e-02, -1.08700e-02,  7.29600e-03,  3.51800e-03, -2.15800e-03, -7.02200e-04,  4.27000e-04],
                           [ 4.87500e-03,  7.84300e-04, -1.85000e-02, -5.12500e-03,  3.27200e-03,  1.18300e-03, -9.57800e-04, -2.39800e-04]])

# Reaction 4
chebyshev_reaction('gQOOHb (+ M) <=> gRO2 (+ M)',
                   Tmin=180.0, Tmax=1500.0,
                   Pmin=(0.01, 'atm'), Pmax=(98.692, 'atm'),
                   coeffs=[[ 1.95800e+00,  1.18900e+00, -1.14800e-01,  3.88200e-02, -7.13100e-03,  1.39100e-04,  4.50500e-04, -3.24600e-04],
                           [-3.00700e+00,  9.47300e-01,  1.58600e-01, -2.17500e-02,  3.65100e-03, -9.12200e-04,  1.31100e-04,  9.81300e-06],
                           [-3.25900e+00,  2.15800e-01,  4.11300e-02,  6.85100e-04,  2.55600e-03,  7.39900e-04, -4.89200e-04,  1.35400e-04],
                           [-1.74400e+00, -1.73900e-02, -3.82400e-02, -1.19100e-02,  2.67900e-03,  1.43200e-03, -1.43100e-04,  6.90200e-05],
                           [-8.98700e-01, -5.37300e-03, -4.60800e-02, -1.01100e-02, -1.04000e-03,  1.70800e-04,  2.56300e-04,  5.17900e-05],
                           [-4.23900e-01, -5.21000e-03, -1.53800e-02, -2.45200e-03, -1.05400e-03, -5.68300e-04, -1.41100e-05,  4.28800e-05],
                           [-1.54000e-01, -3.16600e-02,  8.07900e-03, -4.21400e-04,  3.65300e-04, -9.67000e-05, -1.79100e-04,  4.07400e-05],
                           [-1.19300e-01,  1.02600e-02, -1.02300e-02,  3.37300e-03, -3.95500e-05, -7.66500e-05,  1.82100e-04, -4.07200e-05],
                           [-7.83700e-03, -1.36500e-02,  2.63000e-03, -2.08100e-03, -4.40600e-04,  6.96900e-06,  5.91700e-05,  4.93200e-05],
                           [-1.05600e-02,  4.22900e-03, -4.18300e-04, -9.01000e-04, -8.36700e-04, -1.81000e-04, -1.28300e-06,  1.32900e-05]])

# Reaction 5
chebyshev_reaction('O2 + gR (+ M) <=> gRO2 (+ M)',
                   Tmin=180.0, Tmax=1500.0,
                   Pmin=(0.01, 'atm'), Pmax=(98.692, 'atm'),
                   coeffs=[[ 1.24400e+01,  7.43200e-01, -7.17400e-02,  7.64700e-03, -1.20600e-03,  2.04300e-04, -6.49200e-05,  2.28700e-05],
                           [-3.17900e+00,  9.95600e-01, -1.00900e-02, -9.47400e-03,  6.30500e-04,  2.04800e-04, -5.14500e-05, -6.32400e-06],
                           [-1.94900e+00,  3.84000e-01,  5.67100e-02, -2.53200e-03, -1.43500e-03,  8.73700e-06,  7.87200e-05, -1.12100e-05],
                           [-1.14600e+00,  5.61400e-02,  3.59000e-02,  5.72200e-03,  4.42500e-05, -3.69700e-04,  1.00100e-05,  8.22400e-06],
                           [-6.38900e-01, -5.32100e-02,  6.71700e-03,  3.81900e-03,  1.22400e-03, -5.83200e-05, -4.09800e-05, -1.00700e-05],
                           [-3.28000e-01, -6.71400e-02, -6.28700e-03,  2.79900e-04,  7.28300e-04,  1.43200e-04,  1.67500e-05, -9.21300e-06],
                           [-1.45200e-01, -4.95200e-02, -9.09300e-03, -1.14800e-03,  6.41000e-05,  7.18900e-05,  3.16600e-05,  5.68800e-06],
                           [-4.54500e-02, -2.53000e-02, -7.90900e-03, -1.36000e-03, -1.83900e-04, -1.37700e-06,  7.02300e-06,  6.11200e-06],
                           [ 1.43900e-03, -4.51000e-03, -5.08000e-03, -1.20800e-03, -2.35200e-04, -1.11400e-05, -4.09300e-06,  8.21700e-07],
                           [ 1.69500e-02,  8.45400e-03, -1.61400e-03, -8.78300e-04, -2.25500e-04, -1.50700e-05, -1.28600e-06, -4.38800e-07]])
#  gRO2(+M) <=> gQOOH[O](+M)                           1.000e+00 0.000     0.000
#      TCHEB/ 180.000   1500.000 /
#      PCHEB/ 0.010     98.692   /
#      CHEB/ 10 8/
#      CHEB/ -7.963e+00   1.860e+00    -6.403e-02   -1.179e-02   -1.740e-03  /
#      CHEB/ -1.798e-03   -7.570e-04   1.465e-04    4.465e+00    1.526e-01   /
#      CHEB/ 4.002e-02    1.153e-03    -2.319e-03   5.515e-04    2.965e-04   /
#      CHEB/ -1.639e-04   -2.782e+00   -5.161e-02   -3.434e-02   -1.197e-02  /
#      CHEB/ -2.828e-03   -3.017e-04   1.394e-04    1.223e-04    -1.380e+00  /
#      CHEB/ -3.709e-02   -1.565e-02   -3.966e-03   9.052e-05    2.539e-04   /
#      CHEB/ 8.477e-05    5.363e-05    -6.891e-01   -3.232e-02   -6.628e-03  /
#      CHEB/ -1.038e-03   8.074e-04    5.401e-04    2.234e-04    4.629e-05   /
#      CHEB/ -3.263e-01   -3.691e-02   -7.843e-03   -1.600e-03   3.979e-04   /
#      CHEB/ 3.330e-04    1.012e-04    -6.811e-06   -1.718e-01   -2.055e-02  /
#      CHEB/ -4.115e-03   -1.261e-03   -8.161e-05   9.211e-05    2.061e-05   /
#      CHEB/ -1.258e-05   -7.044e-02   -7.810e-03   -1.426e-03   -7.004e-04  /
#      CHEB/ -5.951e-04   -6.252e-05   8.995e-05    -6.894e-06   2.158e-02   /
#      CHEB/ -7.160e-03   -6.192e-03   -1.379e-03   1.770e-04    3.340e-05   /
#      CHEB/ -1.268e-04   -2.246e-06   -9.782e-03   1.507e-02    3.782e-03   /
#      CHEB/ 2.837e-04    -6.713e-04   -1.541e-04   1.006e-04    1.062e-05   /

# Reaction 6
chebyshev_reaction('gQOOHa (+ M) <=> gQOOH[O] (+ M)',
                   Tmin=180.0, Tmax=1500.0,
                   Pmin=(0.01, 'atm'), Pmax=(98.692, 'atm'),
                   coeffs=[[-1.05900e+01,  5.88200e-01,  4.00000e-03,  6.76600e-03, -8.12500e-03, -4.30400e-03, -9.25800e-04,  7.28900e-05],
                           [ 3.94400e+00,  7.42300e-01, -2.37100e-02,  7.63000e-03,  6.20600e-03,  7.62200e-04,  1.21000e-04, -5.11400e-05],
                           [-2.69600e+00,  1.59400e-01, -3.11600e-02, -2.61100e-02, -1.03700e-03,  5.25600e-04,  4.39000e-04,  3.94400e-04],
                           [-1.62700e+00, -6.07000e-02,  5.56300e-02, -2.46300e-03, -1.87700e-03,  5.42100e-04,  2.40600e-04,  1.17100e-04],
                           [-9.30300e-01, -1.87800e-01,  3.97200e-02,  1.22600e-02,  1.02200e-04,  2.46500e-04,  1.97600e-04, -2.77600e-06],
                           [-4.50100e-01, -2.06800e-01, -1.66800e-02,  8.44600e-03,  2.49300e-03, -1.44200e-04, -6.42000e-05,  1.25400e-06],
                           [-2.09500e-01, -1.19100e-01, -3.82800e-02, -3.09200e-03,  2.32100e-03,  2.52600e-04, -8.82600e-05,  5.37900e-06],
                           [-5.50600e-02, -3.12500e-02, -3.08000e-02, -1.08100e-02,  2.61000e-04,  7.15400e-04,  8.02400e-07, -2.47900e-05],
                           [ 6.43200e-02,  2.95400e-03, -1.56100e-02, -9.82500e-03, -1.77700e-03,  3.08700e-04,  7.88100e-05,  1.66400e-05],
                           [ 8.14800e-03,  5.11600e-02,  1.12700e-02, -4.73700e-03, -3.22800e-03, -2.87400e-04,  1.55000e-04,  8.92800e-06]])

# Reaction 7
chebyshev_reaction('gQOOHg (+ M) <=> gQOOH[O] (+ M)',
                   Tmin=180.0, Tmax=1500.0,
                   Pmin=(0.01, 'atm'), Pmax=(98.692, 'atm'),
                   coeffs=[[-7.87500e+00,  1.01700e+00, -6.02800e-02,  4.53000e-02, -1.70200e-02, -3.20300e-03, -1.06700e-03, -6.10400e-05],
                           [-3.71100e+00,  8.30400e-01,  7.89800e-02, -1.67900e-02,  1.88700e-02, -2.71700e-03,  1.76900e-04,  2.27300e-04],
                           [-4.04600e+00, -2.89600e-01,  3.62800e-02, -1.77500e-02, -5.36800e-03,  2.55700e-03,  3.15100e-05,  3.56200e-04],
                           [-1.90800e+00, -4.37700e-01, -2.39000e-02,  2.58000e-02, -2.78800e-03, -2.39900e-05,  8.96400e-04, -1.36600e-04],
                           [-7.77900e-01, -1.88700e-01, -7.85800e-02,  5.17300e-03,  8.20500e-03, -7.55100e-05,  1.50900e-05,  8.94900e-05],
                           [-2.86500e-01, -3.52400e-03, -3.85300e-02, -2.54500e-02,  2.89300e-03,  2.95000e-03, -4.71800e-04, -5.69800e-05],
                           [-1.62000e-01,  3.37100e-02,  1.86900e-02, -1.46400e-02, -8.10600e-03,  1.52600e-03,  9.72900e-04, -1.45400e-04],
                           [-9.04200e-02, -1.13900e-02,  1.41800e-02,  7.92700e-03, -5.45000e-03, -2.48900e-03,  9.92600e-04,  3.52300e-04],
                           [ 2.57100e-02, -4.86100e-02, -1.83900e-02,  7.64700e-03,  3.50800e-03, -2.20800e-03, -7.13100e-04,  4.74400e-04],
                           [-1.78500e-02,  1.14500e-02, -1.34200e-02, -6.10700e-03,  3.10500e-03,  1.19500e-03, -9.58700e-04, -2.57700e-04]])

# Reaction 8
chebyshev_reaction('gQOOHb (+ M) <=> gQOOH[O] (+ M)',
                   Tmin=180.0, Tmax=1500.0,
                   Pmin=(0.01, 'atm'), Pmax=(98.692, 'atm'),
                   coeffs=[[-1.02500e+01,  1.73900e+00, -1.16100e-01, -8.59200e-03, -9.93300e-03,  1.86700e-03, -1.51000e-04, -1.10400e-03],
                           [-1.13000e+00,  5.00200e-01,  1.83600e-01,  2.58600e-02,  5.02200e-03, -5.76200e-03, -6.58900e-04,  1.04900e-03],
                           [-3.55400e+00, -2.64400e-02, -5.14200e-02, -1.97600e-02, -1.58300e-03,  8.06000e-04,  5.78000e-05,  2.36400e-04],
                           [-1.77900e+00, -1.89500e-02, -4.41100e-02, -1.83800e-02, -8.19800e-04,  1.12600e-03,  3.56300e-04,  1.79800e-04],
                           [-8.37900e-01,  2.37700e-02, -2.31300e-02, -6.15200e-03, -4.85600e-04,  4.25200e-04,  3.80700e-04,  8.55800e-05],
                           [-3.58000e-01,  1.42600e-03, -6.35000e-03, -1.53300e-03, -2.96400e-04,  1.11600e-04,  1.23900e-04, -5.67200e-05],
                           [-1.65400e-01, -2.65100e-02,  7.18100e-03, -7.08500e-04,  4.02700e-04,  9.93500e-05, -1.85600e-04, -2.89700e-05],
                           [-9.40500e-02, -1.72400e-03, -7.02500e-03,  2.35500e-03, -6.63100e-04, -1.89000e-04,  2.00800e-04, -3.83000e-06],
                           [ 1.79400e-02, -2.33200e-02, -4.25400e-03, -3.35600e-03, -1.87200e-04,  1.67400e-04, -1.97300e-05,  7.42100e-06],
                           [-2.71000e-02,  8.29000e-03,  2.90600e-03,  1.61900e-04, -1.19800e-03, -3.97300e-04,  7.38500e-05,  5.88900e-05]])

# Reaction 9
chebyshev_reaction('O2 + gR (+ M) <=> gQOOH[O] (+ M)',
                   Tmin=180.0, Tmax=1500.0,
                   Pmin=(0.01, 'atm'), Pmax=(98.692, 'atm'),
                   coeffs=[[ 1.87100e+00,  1.24300e+00,  1.54100e-01,  5.67100e-02, -5.96800e-03, -7.41000e-03, -3.76200e-03, -1.40800e-03],
                           [-3.35000e+00,  4.11600e-01, -2.76800e-01, -7.24900e-02,  1.09100e-03,  6.72700e-03,  3.84800e-03,  1.83700e-03],
                           [-1.95600e+00,  3.51500e-01,  2.64500e-02, -2.05800e-02, -7.95700e-03, -1.39500e-03, -6.29600e-05,  7.70200e-05],
                           [-1.08200e+00,  9.38400e-02,  5.51400e-02,  1.10400e-02,  1.28200e-04, -8.80600e-04, -2.66400e-04, -1.30000e-04],
                           [-5.91500e-01, -3.35200e-02,  1.67800e-02,  7.52800e-03,  2.51500e-03,  4.56300e-04,  1.11700e-04, -7.82000e-06],
                           [-2.69300e-01, -7.77900e-02, -9.63100e-03,  7.84700e-04,  1.44700e-03,  3.24500e-04,  6.51900e-05,  3.59400e-05],
                           [-1.49400e-01, -4.42300e-02, -7.14500e-03, -1.73700e-03, -6.76700e-04, -1.25800e-05,  1.05300e-04, -1.02600e-05],
                           [-5.71000e-02, -1.73600e-02, -8.02600e-03, -2.50200e-03, -1.31500e-04,  1.07600e-04, -6.67100e-05,  2.29000e-06],
                           [ 5.16200e-02, -2.75800e-02, -9.82000e-03, -3.27200e-04, -1.76100e-04, -1.60700e-04,  9.44600e-05,  2.96500e-05],
                           [-1.48100e-02,  2.54700e-02,  1.24100e-03, -1.78900e-03, -1.86600e-04,  1.37900e-04, -9.28500e-05, -2.47100e-05]])
#  gRO2(+M) <=> gQOOHa(+M)                             1.000e+00 0.000     0.000
#      TCHEB/ 180.000   1500.000 /
#      PCHEB/ 0.010     98.692   /
#      CHEB/ 10 8/
#      CHEB/ -1.661e+00   4.918e-01    -3.207e-02   8.033e-03    9.333e-04   /
#      CHEB/ -3.040e-04   2.030e-05    1.740e-05    4.763e+00    7.864e-01   /
#      CHEB/ -2.564e-02   9.750e-03    2.035e-03    -3.770e-04   1.165e-05   /
#      CHEB/ 2.553e-05    -2.071e+00   3.488e-01    4.052e-02    1.821e-03   /
#      CHEB/ 1.241e-03    2.062e-04    -2.644e-05   2.941e-06    -1.620e+00  /
#      CHEB/ -3.881e-02   5.908e-02    3.943e-03    -3.309e-04   4.790e-04   /
#      CHEB/ 4.189e-05    -1.956e-05   -1.024e+00   -2.142e-01   2.160e-02   /
#      CHEB/ 9.392e-03    -2.308e-04   1.298e-04    1.300e-04    -8.990e-06  /
#      CHEB/ -4.819e-01   -2.042e-01   -2.518e-02   7.018e-03    1.521e-03   /
#      CHEB/ -1.493e-04   6.634e-05    2.190e-05    -2.235e-01   -1.148e-01  /
#      CHEB/ -4.361e-02   -2.212e-03   2.147e-03    1.597e-04    -6.114e-05  /
#      CHEB/ 1.634e-05    -3.820e-02   -2.804e-02   -3.237e-02   -9.426e-03  /
#      CHEB/ 4.252e-04    5.369e-04    -4.036e-05   -2.295e-05   2.306e-02   /
#      CHEB/ 2.410e-02    -1.019e-02   -9.387e-03   -1.970e-03   3.284e-04   /
#      CHEB/ 9.486e-05    -2.724e-05   2.319e-02    4.126e-02    7.024e-03   /
#      CHEB/ -4.081e-03   -2.873e-03   -3.330e-04   1.323e-04    2.379e-05   /
#  gQOOH[O](+M) <=> gQOOHa(+M)                         1.000e+00 0.000     0.000
#      TCHEB/ 180.000   1500.000 /
#      PCHEB/ 0.010     98.692   /
#      CHEB/ 10 8/
#      CHEB/ 2.312e-01    5.882e-01    4.000e-03    6.766e-03    -8.125e-03  /
#      CHEB/ -4.304e-03   -9.258e-04   7.289e-05    -3.939e+00   7.423e-01   /
#      CHEB/ -2.371e-02   7.630e-03    6.206e-03    7.622e-04    1.210e-04   /
#      CHEB/ -5.114e-05   -2.707e+00   1.594e-01    -3.116e-02   -2.611e-02  /
#      CHEB/ -1.037e-03   5.256e-04    4.390e-04    3.944e-04    -1.677e+00  /
#      CHEB/ -6.070e-02   5.563e-02    -2.463e-03   -1.877e-03   5.421e-04   /
#      CHEB/ 2.406e-04    1.171e-04    -9.554e-01   -1.878e-01   3.972e-02   /
#      CHEB/ 1.226e-02    1.022e-04    2.465e-04    1.976e-04    -2.776e-06  /
#      CHEB/ -4.593e-01   -2.068e-01   -1.668e-02   8.446e-03    2.493e-03   /
#      CHEB/ -1.442e-04   -6.420e-05   1.254e-06    -2.128e-01   -1.191e-01  /
#      CHEB/ -3.828e-02   -3.092e-03   2.321e-03    2.526e-04    -8.826e-05  /
#      CHEB/ 5.379e-06    -5.634e-02   -3.125e-02   -3.080e-02   -1.081e-02  /
#      CHEB/ 2.610e-04    7.154e-04    8.024e-07    -2.479e-05   6.386e-02   /
#      CHEB/ 2.954e-03    -1.561e-02   -9.825e-03   -1.777e-03   3.087e-04   /