units(length='cm', time='s', quantity='mol', act_energy='kcal/mol')

ideal_gas(name='gas',
          elements="H D T C Ci O Oi N Ne Ar He Si S F Cl Br I X",
          species="""OH             bQOOH[O]       acetone
                     H2O            balkoxyketone  ibutenol
                     trisub_epoxy   bQOOHg         CH2O
                     galkene        O2             bR
                     bQOOHa         bRO2           disub_epoxy
                     HO2""",
          reactions='all',
          initial_state=state(temperature=300.0, pressure=OneAtm))

#-------------------------------------------------------------------------------
# Element data
#-------------------------------------------------------------------------------

element(symbol='Ci', atomic_mass=13.003)
element(symbol='D', atomic_mass=2.014)
element(symbol='Oi', atomic_mass=18.0)
element(symbol='T', atomic_mass=3.016)
element(symbol='X', atomic_mass=195.083)
#-------------------------------------------------------------------------------
# Species data
#-------------------------------------------------------------------------------

species(name='OH',
        atoms='H:1 O:1',
        thermo=(NASA([10.00, 984.14],
                     [ 3.49686242E+00,  1.83973160E-04, -9.97634499E-07,
                       1.56942783E-09, -6.10128175E-13,  3.41673934E+03,
                       1.48093120E+00]),
                NASA([984.14, 3000.00],
                     [ 3.45221464E+00, -2.95124034E-04,  7.39418622E-07,
                      -2.89309866E-10,  3.53041498E-14,  3.45751599E+03,
                       1.85813897E+00])))

species(name='bQOOH[O]',
        atoms='C:4 H:9 O:3',
        thermo=(NASA([10.00, 338.69],
                     [ 3.60915854E+00,  3.39069566E-02,  2.22227265E-04,
                      -8.23527342E-07,  8.56246333E-10, -2.20793208E+04,
                       1.23284605E+01]),
                NASA([338.69, 3000.00],
                     [ 5.03198881E+00,  5.46235886E-02, -3.56935806E-05,
                       1.12371751E-08, -1.35390171E-12, -2.23909036E+04,
                       3.82760723E+00])))

species(name='acetone',
        atoms='C:3 H:6 O:1',
        thermo=(NASA([10.00, 414.35],
                     [ 3.73496166E+00,  3.05743218E-02, -1.26253585E-04,
                       3.66080978E-07, -3.31430437E-10, -2.56672544E+04,
                       8.24936012E+00]),
                NASA([414.35, 3000.00],
                     [ 1.70010292E-01,  3.28431468E-02, -1.80960132E-05,
                       4.82960690E-09, -5.02388538E-13, -2.50958713E+04,
                       2.56372653E+01])))

species(name='H2O',
        atoms='H:2 O:1',
        thermo=(NASA([10.00, 773.84],
                     [ 4.00473541E+00, -2.39729134E-04,  8.11862955E-07,
                       1.47891862E-09, -1.19783539E-12, -3.03533807E+04,
                      -9.96254147E-02]),
                NASA([773.84, 3000.00],
                     [ 3.52133374E+00,  1.05377009E-03,  6.40722099E-07,
                      -3.86240235E-10,  5.49243294E-14, -3.02424794E+04,
                       2.34173094E+00])))

species(name='balkoxyketone',
        atoms='C:4 H:7 O:2',
        thermo=(NASA([10.00, 269.93],
                     [ 3.81931151E+00,  1.68519318E-02,  2.42742224E-04,
                      -9.64821161E-07,  1.18509335E-09, -2.01236777E+04,
                       1.20521854E+01]),
                NASA([269.93, 3000.00],
                     [ 3.57555944E+00,  4.28868089E-02, -2.65390705E-05,
                       7.99659117E-09, -9.32983470E-13, -2.01922058E+04,
                       1.13957990E+01])))

species(name='ibutenol',
        atoms='C:4 H:8 O:1',
        thermo=(NASA([10.00, 135.97],
                     [ 3.95714996E+00,  5.72646980E-03,  4.63611760E-04,
                      -3.04137514E-06,  6.85019471E-09, -2.39330554E+04,
                       8.21931848E+00]),
                NASA([135.97, 3000.00],
                     [ 3.32467612E+00,  3.69033556E-02, -1.89960416E-05,
                       4.73417677E-09, -4.59705291E-13, -2.39274768E+04,
                       9.58133237E+00])))

species(name='trisub_epoxy',
        atoms='C:4 H:8 O:2',
        thermo=(NASA([10.00, 209.19],
                     [ 3.75295042E+00,  2.37546930E-02,  1.26610110E-04,
                      -4.78364365E-07,  5.79468168E-10, -4.03442199E+04,
                       1.12739684E+01]),
                NASA([209.19, 3000.00],
                     [ 2.64185254E+00,  4.50006531E-02, -2.57361066E-05,
                       7.15266054E-09, -7.72980731E-13, -4.02977344E+04,
                       1.48960343E+01])))

species(name='bQOOHg',
        atoms='C:4 H:9 O:3',
        thermo=(NASA([10.00, 441.09],
                     [ 3.56595280E+00,  3.36073467E-02,  2.03462772E-04,
                      -5.98977617E-07,  4.83271168E-10, -2.42625088E+04,
                       1.33537891E+01]),
                NASA([441.09, 3000.00],
                     [ 6.09031192E+00,  5.80517622E-02, -4.06392697E-05,
                       1.32574026E-08, -1.62501077E-12, -2.49456942E+04,
                      -1.97849715E+00])))

species(name='CH2O',
        atoms='C:1 H:2 O:1',
        thermo=(NASA([10.00, 601.31],
                     [ 4.03190845E+00, -1.93233367E-03,  8.89743345E-06,
                       2.98105926E-09, -7.90813886E-12, -1.42276270E+04,
                       3.47574660E+00]),
                NASA([601.31, 3000.00],
                     [ 1.40134195E+00,  9.48858016E-03, -4.43088317E-06,
                       9.48452194E-10, -7.43790219E-14, -1.38013869E+04,
                       1.57423780E+01])))

species(name='galkene',
        atoms='C:4 H:8 O:1',
        thermo=(NASA([10.00, 383.47],
                     [ 3.84035604E+00,  1.20378740E-02,  1.87486319E-04,
                      -5.44759148E-07,  4.80711015E-10, -2.14674990E+04,
                       1.02570291E+01]),
                NASA([383.47, 3000.00],
                     [ 4.00413385E+00,  3.79025144E-02, -2.15435710E-05,
                       6.15213311E-09, -6.97446345E-13, -2.16827883E+04,
                       6.98052628E+00])))

species(name='O2',
        atoms='O:2',
        thermo=(NASA([10.00, 605.96],
                     [ 3.50743498E+00, -4.43860349E-04,  1.45938058E-06,
                       1.61509333E-09, -2.32050052E-12, -9.24756224E+02,
                       4.72183634E+00]),
                NASA([605.96, 3000.00],
                     [ 2.87462882E+00,  2.17840991E-03, -1.18262921E-06,
                       2.86910493E-10, -2.53297146E-14, -8.19517838E+02,
                       7.69331810E+00])))

species(name='bR',
        atoms='C:4 H:9 O:1',
        thermo=(NASA([10.00, 483.43],
                     [ 3.38164846E+00,  5.97142637E-02, -1.58320095E-04,
                       3.04908893E-07, -2.13091806E-10, -1.26767519E+04,
                       1.09226843E+01]),
                NASA([483.43, 3000.00],
                     [ 2.33428824E+00,  4.22094427E-02, -2.28029290E-05,
                       6.04614564E-09, -6.30240159E-13, -1.22696699E+04,
                       1.83772893E+01])))

species(name='bQOOHa',
        atoms='C:4 H:9 O:3',
        thermo=(NASA([10.00, 390.53],
                     [ 3.54969236E+00,  3.76592474E-02,  1.76622653E-04,
                      -5.98063750E-07,  5.45069236E-10, -2.51350760E+04,
                       1.31518761E+01]),
                NASA([390.53, 3000.00],
                     [ 5.33564209E+00,  5.64935715E-02, -3.83214298E-05,
                       1.22990604E-08, -1.49549987E-12, -2.55576860E+04,
                       2.59015836E+00])))

species(name='bRO2',
        atoms='C:4 H:9 O:3',
        thermo=(NASA([10.00, 461.39],
                     [ 3.53964713E+00,  3.88723795E-02,  9.57420148E-05,
                      -2.80380499E-07,  2.09647462E-10, -3.26160073E+04,
                       1.18803618E+01]),
                NASA([461.39, 3000.00],
                     [ 3.47201723E+00,  6.00510247E-02, -4.00567321E-05,
                       1.25663813E-08, -1.49496682E-12, -3.28289541E+04,
                       9.77903975E+00])))

species(name='disub_epoxy',
        atoms='C:4 H:8 O:2',
        thermo=(NASA([10.00, 549.41],
                     [ 3.89863211E+00,  5.97532637E-03,  1.66685676E-04,
                      -3.10743768E-07,  1.78330192E-10, -3.42628320E+04,
                       1.13847308E+01]),
                NASA([549.41, 3000.00],
                     [-6.40277648E-01,  6.05960003E-02, -4.13427220E-05,
                       1.31555461E-08, -1.57685017E-12, -3.40897151E+04,
                       2.76005436E+01])))

species(name='HO2',
        atoms='H:1 O:2',
        thermo=(NASA([10.00, 891.11],
                     [ 4.02887004E+00, -1.75769289E-03,  1.08726004E-05,
                      -1.13812972E-08,  3.90113097E-12,  4.95165001E+02,
                       4.69302008E+00]),
                NASA([891.11, 3000.00],
                     [ 3.06571044E+00,  4.28505005E-03, -2.19325920E-06,
                       5.58882699E-10, -5.61246669E-14,  5.98557610E+02,
                       8.84564156E+00])))

#-------------------------------------------------------------------------------
# Reaction data
#-------------------------------------------------------------------------------

# Reaction 1
chebyshev_reaction('bQOOHg (+ M) <=> bRO2 (+ M)',
                   Tmin=180.0, Tmax=1500.0,
                   Pmin=(0.01, 'atm'), Pmax=(98.692, 'atm'),
                   coeffs=[[ 4.58800e+00,  4.75300e-01, -1.12000e-01,  5.65500e-03,  2.27200e-03, -2.63000e-04, -9.70300e-05, -6.25800e-06],
                           [ 1.83300e+00,  8.52400e-01, -1.88500e-01,  4.39200e-03,  4.71400e-03, -1.66300e-04, -2.90900e-04, -1.60900e-05],
                           [ 3.80200e-01,  6.10700e-01, -1.05300e-01, -9.91400e-03,  4.46000e-03,  7.02500e-04, -4.65100e-04, -3.92100e-05],
                           [-1.26900e-01,  3.41700e-01, -2.40600e-02, -1.91900e-02,  2.74200e-03,  1.52200e-03, -4.84900e-04, -9.38500e-05],
                           [-1.89600e-01,  1.42300e-01,  1.99400e-02, -1.73400e-02,  6.73900e-05,  1.70800e-03, -2.46100e-04, -1.53400e-04],
                           [-1.09400e-01,  4.05100e-02,  2.53800e-02, -8.52800e-03, -1.85000e-03,  1.13100e-03,  1.08900e-04, -1.64600e-04],
                           [-3.91900e-02,  8.26200e-03,  1.28700e-02, -6.18300e-04, -2.00900e-03,  2.51100e-04,  3.30500e-04, -1.05200e-04],
                           [-1.00500e-02,  4.47400e-03,  1.60100e-03,  2.41000e-03, -1.00300e-03, -3.23300e-04,  3.05400e-04, -1.46500e-05],
                           [-4.05100e-03,  4.42300e-03, -2.09000e-03,  1.77100e-03, -6.28600e-05, -3.74900e-04,  1.34700e-04,  4.48500e-05],
                           [-3.23400e-03,  2.18100e-03, -1.13100e-03,  3.75400e-04,  2.13800e-04, -1.42200e-04, -7.75400e-06,  4.87100e-05]])

# Reaction 2
chebyshev_reaction('bQOOHa (+ M) <=> bRO2 (+ M)',
                   Tmin=180.0, Tmax=1500.0,
                   Pmin=(0.01, 'atm'), Pmax=(98.692, 'atm'),
                   coeffs=[[ 3.53100e+00,  1.11200e+00, -1.48500e-01, -1.68100e-02, -4.22800e-04,  6.94200e-04,  2.10800e-04, -1.66900e-06],
                           [ 2.25600e+00,  1.41700e+00, -1.02300e-01, -2.93600e-02, -7.92000e-03,  1.07500e-03,  5.07800e-04,  3.08300e-05],
                           [ 3.21300e-01,  3.61200e-01,  5.49200e-02,  6.09800e-03, -1.01100e-02, -2.56500e-03,  2.10000e-04,  2.83300e-04],
                           [-1.70500e-01,  3.96400e-02,  2.83100e-02,  1.52700e-02,  2.15700e-03, -3.00100e-03, -1.04900e-03,  1.17200e-04],
                           [-1.98400e-01,  8.25400e-02, -1.16600e-02, -1.02000e-03,  6.89900e-03,  5.09600e-04, -9.13400e-04, -3.64600e-04],
                           [-1.05700e-01,  8.27600e-02, -7.57700e-03, -7.55900e-03,  1.95300e-03,  1.80400e-03,  2.07300e-04, -2.91600e-04],
                           [-3.25600e-02,  2.57500e-02,  5.24700e-03, -3.22900e-03, -1.59100e-03,  6.40500e-04,  5.17900e-04,  6.45200e-05],
                           [-6.97400e-03, -5.47300e-03,  6.47700e-03,  5.40500e-04, -1.33900e-03, -2.81200e-04,  1.94500e-04,  1.53400e-04],
                           [-5.52900e-03, -2.60200e-03,  1.17200e-03,  1.26900e-03, -2.50800e-04, -3.71700e-04, -2.40200e-05,  5.85300e-05],
                           [-5.68700e-03,  4.29500e-03, -1.86900e-03,  7.72000e-04,  2.04400e-04, -1.72100e-04, -6.25300e-05, -5.50900e-06]])

# Reaction 3
chebyshev_reaction('bQOOH[O] (+ M) <=> bRO2 (+ M)',
                   Tmin=180.0, Tmax=1500.0,
                   Pmin=(0.01, 'atm'), Pmax=(98.692, 'atm'),
                   coeffs=[[ 9.65400e+00,  1.80900e+00, -1.99000e-01, -5.85900e-02, -7.63400e-03,  5.08800e-03,  2.62200e-03,  8.94900e-05],
                           [-9.95800e-01,  4.23500e-01,  5.39400e-02,  2.64200e-02, -5.99900e-03, -6.01700e-03, -1.86700e-03,  3.67900e-04],
                           [-5.65700e-01,  2.72300e-01,  1.45700e-02,  1.60600e-02,  9.30900e-04, -1.88400e-03, -1.29700e-03, -2.68500e-04],
                           [-2.76200e-01,  1.55700e-01, -5.59900e-03,  4.46900e-03,  3.30400e-03,  6.14900e-04, -4.07000e-04, -3.83100e-04],
                           [-1.49800e-01,  9.45100e-02, -3.65500e-03, -2.41300e-03,  1.49200e-03,  6.25000e-04,  1.78300e-04, -2.73200e-05],
                           [-5.53200e-02,  3.97500e-02, -5.68300e-03, -4.52300e-03,  1.26000e-03,  9.09400e-04,  2.45900e-04, -4.00100e-05],
                           [-3.97700e-02,  3.01800e-02,  2.85300e-03, -3.31300e-03, -8.75000e-04, -2.78000e-05,  2.13900e-04,  1.60900e-04],
                           [-7.93200e-03,  7.12400e-03, -2.26300e-04, -1.28200e-03, -1.40300e-04,  1.40800e-04,  2.30500e-05, -5.64400e-06],
                           [-1.66700e-02,  1.10500e-02,  3.58400e-03, -4.43300e-05, -9.10800e-04, -3.01000e-04,  3.00200e-05,  6.79200e-05],
                           [ 2.58400e-03, -3.09700e-03, -9.62900e-04,  6.29500e-04,  2.85700e-04,  3.77800e-05, -6.80200e-05, -5.94200e-05]])

# Reaction 4
chebyshev_reaction('O2 + bR (+ M) <=> bRO2 (+ M)',
                   Tmin=180.0, Tmax=1500.0,
                   Pmin=(0.01, 'atm'), Pmax=(98.692, 'atm'),
                   coeffs=[[ 1.25000e+01,  4.09400e-01, -8.89400e-02,  9.34400e-03, -2.58100e-03,  6.35900e-04, -1.50600e-06, -2.06900e-05],
                           [-6.98700e-01,  6.44800e-01, -1.05900e-01, -3.61200e-03,  1.35100e-03, -4.50800e-04,  3.26600e-04, -7.12000e-05],
                           [-3.47800e-01,  3.45100e-01, -1.10100e-02, -1.94600e-02,  2.77900e-03, -1.76900e-04,  9.08100e-06,  5.61100e-05],
                           [-1.75600e-01,  1.22600e-01,  3.06600e-02, -1.46600e-02, -3.25300e-04,  5.21200e-04, -1.59900e-04,  7.15400e-05],
                           [-7.75700e-02,  3.07400e-02,  2.30100e-02, -2.47200e-03, -2.26000e-03,  3.49200e-04, -4.26500e-05,  1.80400e-05],
                           [-3.84200e-02,  1.26400e-02,  6.00500e-03,  2.79600e-03, -1.14900e-03, -2.47300e-04,  6.52100e-05, -8.04200e-06],
                           [-2.41500e-02,  1.32400e-02, -1.97000e-03,  2.16500e-03,  1.24800e-04, -3.10800e-04,  1.84400e-05, -4.85100e-06],
                           [-1.42300e-02,  8.55900e-03, -9.15600e-04,  7.93000e-05,  4.33800e-04, -8.29900e-05, -1.99000e-05, -7.16900e-06],
                           [-5.80600e-03,  1.38600e-03,  1.37800e-03, -4.96200e-04,  5.48000e-05,  8.74400e-05, -1.51500e-05, -5.42500e-06],
                           [-3.42300e-04, -3.10900e-03,  1.92700e-03, -1.84800e-04, -1.54300e-04,  6.29800e-05,  3.71400e-06,  9.73600e-07]])
#  bRO2(+M) <=> bQOOHg(+M)                             1.000e+00 0.000     0.000
#      TCHEB/ 180.000   1500.000 /
#      PCHEB/ 0.010     98.692   /
#      CHEB/ 10 8/
#      CHEB/ -5.746e+00   4.753e-01    -1.120e-01   5.655e-03    2.272e-03   /
#      CHEB/ -2.630e-04   -9.703e-05   -6.258e-06   1.109e+01    8.524e-01   /
#      CHEB/ -1.885e-01   4.392e-03    4.714e-03    -1.663e-04   -2.909e-04  /
#      CHEB/ -1.609e-05   5.259e-01    6.107e-01    -1.053e-01   -9.914e-03  /
#      CHEB/ 4.460e-03    7.025e-04    -4.651e-04   -3.921e-05   -8.980e-02  /
#      CHEB/ 3.417e-01    -2.406e-02   -1.919e-02   2.742e-03    1.522e-03   /
#      CHEB/ -4.849e-04   -9.385e-05   -1.839e-01   1.423e-01    1.994e-02   /
#      CHEB/ -1.734e-02   6.739e-05    1.708e-03    -2.461e-04   -1.534e-04  /
#      CHEB/ -1.095e-01   4.051e-02    2.538e-02    -8.528e-03   -1.850e-03  /
#      CHEB/ 1.131e-03    1.089e-04    -1.646e-04   -3.977e-02   8.262e-03   /
#      CHEB/ 1.287e-02    -6.183e-04   -2.009e-03   2.511e-04    3.305e-04   /
#      CHEB/ -1.052e-04   -1.050e-02   4.474e-03    1.601e-03    2.410e-03   /
#      CHEB/ -1.003e-03   -3.233e-04   3.054e-04    -1.465e-05   -4.375e-03  /
#      CHEB/ 4.423e-03    -2.090e-03   1.771e-03    -6.286e-05   -3.749e-04  /
#      CHEB/ 1.347e-04    4.485e-05    -3.420e-03   2.181e-03    -1.131e-03  /
#      CHEB/ 3.754e-04    2.138e-04    -1.422e-04   -7.754e-06   4.871e-05   /

# Reaction 5
chebyshev_reaction('bQOOHa (+ M) <=> bQOOHg (+ M)',
                   Tmin=180.0, Tmax=1500.0,
                   Pmin=(0.01, 'atm'), Pmax=(98.692, 'atm'),
                   coeffs=[[-4.49400e+00,  5.03600e-02, -3.49800e-01, -1.46200e-02,  6.10100e-03,  1.03700e-03, -3.45200e-04, -1.25300e-04],
                           [ 7.36800e+00,  1.94800e+00, -1.22300e-01, -3.35200e-02, -1.15000e-02,  5.33500e-04,  1.16300e-03,  3.39000e-05],
                           [ 5.72300e-01,  6.45500e-01,  2.70500e-04,  4.49100e-03,  4.14400e-03, -4.61500e-03, -1.67400e-03,  4.47500e-04],
                           [-4.59700e-01,  3.00900e-01,  1.00300e-02, -2.30000e-02,  1.17400e-02,  3.20900e-03, -2.12200e-03, -8.16900e-04],
                           [-2.21700e-01,  8.67300e-02,  3.99700e-02, -2.12600e-02, -1.40700e-03,  4.73300e-03,  6.78300e-04, -6.89200e-04],
                           [-2.76300e-02, -1.61200e-03,  2.25700e-02, -4.86700e-04, -5.60200e-03,  7.18800e-04,  1.28000e-03,  4.89600e-05],
                           [ 1.37000e-02, -1.00300e-03,  1.17200e-03,  4.68900e-03, -2.07600e-03, -9.11200e-04,  4.81400e-04,  1.72500e-04],
                           [ 1.00900e-02,  3.32500e-03, -1.47700e-03,  1.49000e-03, -1.02200e-04, -4.65800e-04,  4.69300e-05,  6.12400e-05],
                           [ 1.26500e-03, -3.03200e-04,  1.18900e-03, -1.19500e-05, -1.50300e-04, -6.18700e-05,  1.08200e-05,  2.88900e-05],
                           [-5.83900e-03, -2.23800e-03,  1.99400e-03, -8.88600e-05, -2.55700e-04, -2.83000e-05,  2.71400e-05,  3.33700e-05]])

# Reaction 6
chebyshev_reaction('bQOOH[O] (+ M) <=> bQOOHg (+ M)',
                   Tmin=180.0, Tmax=1500.0,
                   Pmin=(0.01, 'atm'), Pmax=(98.692, 'atm'),
                   coeffs=[[ 1.86700e+00,  3.10800e-01, -3.03100e-01, -4.79100e-02, -3.65700e-03,  4.69700e-03,  2.03600e-03, -1.68500e-04],
                           [ 3.01100e+00,  1.30700e+00, -9.40300e-02,  3.15300e-02, -7.86100e-04, -7.37100e-03, -2.39200e-03,  4.58600e-04],
                           [ 1.97300e-01,  7.70400e-01, -4.95600e-02, -5.40700e-03,  8.45600e-03, -3.03600e-04, -1.58100e-03, -3.59900e-04],
                           [-3.64900e-01,  3.09000e-01, -4.89400e-03, -2.52500e-02,  8.14200e-03,  4.18200e-03, -5.18000e-04, -6.29800e-04],
                           [-2.31000e-01,  1.12000e-01,  3.10500e-02, -2.04200e-02, -1.83000e-03,  2.69300e-03,  5.68400e-04, -9.67500e-06],
                           [-5.48900e-02,  1.44300e-02,  1.86000e-02, -5.23100e-03, -3.03400e-03,  1.13900e-03,  4.65500e-04, -1.55300e-04],
                           [-1.23600e-03,  1.53900e-02,  1.06100e-02,  2.42700e-03, -3.33500e-03, -7.42400e-04,  4.82000e-04,  7.00000e-05],
                           [ 1.63600e-02, -2.00000e-03, -3.01700e-03,  3.14200e-03,  6.83900e-05, -3.69600e-04,  1.14000e-04, -6.14600e-05],
                           [-6.28000e-03,  7.80800e-03,  9.71000e-04,  8.15000e-04, -3.34100e-04, -4.03800e-04,  7.85800e-05,  1.16100e-04],
                           [-1.44200e-03, -5.78900e-03, -1.52300e-03, -2.11900e-04,  5.02600e-04,  2.27500e-04, -3.50800e-05, -2.18400e-05]])

# Reaction 7
chebyshev_reaction('O2 + bR (+ M) <=> bQOOHg (+ M)',
                   Tmin=180.0, Tmax=1500.0,
                   Pmin=(0.01, 'atm'), Pmax=(98.692, 'atm'),
                   coeffs=[[ 7.81700e+00, -9.20300e-01, -2.70600e-01,  3.65500e-02, -4.77700e-03,  5.65900e-04,  4.41700e-04, -3.29700e-04],
                           [ 1.10100e+00,  1.42000e+00, -1.98900e-01, -4.32200e-02,  1.87100e-02, -1.45900e-03, -6.48900e-04,  2.37500e-04],
                           [ 1.74600e-02,  6.27000e-01,  2.00500e-02, -5.60900e-02,  5.61300e-03,  4.46500e-03, -1.40400e-03, -1.78700e-04],
                           [-1.76300e-01,  1.59300e-01,  6.76500e-02, -2.42100e-02, -5.76300e-03,  4.08100e-03,  1.23800e-04, -5.95200e-04],
                           [-7.10900e-02,  6.42500e-03,  3.52700e-02, -2.42300e-04, -6.18200e-03,  1.26500e-03,  9.06100e-04, -3.49700e-04],
                           [ 6.56200e-03, -5.90800e-03,  7.53200e-03,  3.88900e-03, -2.65700e-03, -1.99700e-04,  7.47700e-04, -3.69500e-05],
                           [ 1.86000e-02,  6.19100e-03,  1.01900e-04,  1.54500e-03, -1.07100e-03, -3.56900e-04,  4.50900e-04,  9.03300e-05],
                           [ 7.83800e-03,  5.28700e-03,  2.32200e-03,  1.79500e-04, -7.36700e-04, -3.81200e-04,  2.51600e-04,  1.31700e-04],
                           [-1.14200e-03, -9.84300e-04,  3.04200e-03,  6.04400e-04, -4.73000e-04, -3.84900e-04,  5.69900e-05,  1.32500e-04],
                           [-4.80700e-03, -4.23300e-03,  1.53800e-03,  8.29100e-04, -2.85400e-05, -2.70500e-04, -7.30700e-05,  8.09800e-05]])
#  bRO2(+M) <=> bQOOHa(+M)                             1.000e+00 0.000     0.000
#      TCHEB/ 180.000   1500.000 /
#      PCHEB/ 0.010     98.692   /
#      CHEB/ 10 8/
#      CHEB/ -5.729e+00   1.112e+00    -1.485e-01   -1.681e-02   -4.228e-04  /
#      CHEB/ 6.942e-04    2.108e-04    -1.669e-06   1.044e+01    1.417e+00   /
#      CHEB/ -1.023e-01   -2.936e-02   -7.920e-03   1.075e-03    5.078e-04   /
#      CHEB/ 3.083e-05    3.763e-01    3.612e-01    5.492e-02    6.098e-03   /
#      CHEB/ -1.011e-02   -2.565e-03   2.100e-04    2.833e-04    -1.692e-01  /
#      CHEB/ 3.964e-02    2.831e-02    1.527e-02    2.157e-03    -3.001e-03  /
#      CHEB/ -1.049e-03   1.172e-04    -2.032e-01   8.254e-02    -1.166e-02  /
#      CHEB/ -1.020e-03   6.899e-03    5.096e-04    -9.134e-04   -3.646e-04  /
#      CHEB/ -1.085e-01   8.276e-02    -7.577e-03   -7.559e-03   1.953e-03   /
#      CHEB/ 1.804e-03    2.073e-04    -2.916e-04   -3.390e-02   2.575e-02   /
#      CHEB/ 5.247e-03    -3.229e-03   -1.591e-03   6.405e-04    5.179e-04   /
#      CHEB/ 6.452e-05    -7.697e-03   -5.473e-03   6.477e-03    5.405e-04   /
#      CHEB/ -1.339e-03   -2.812e-04   1.945e-04    1.534e-04    -5.877e-03  /
#      CHEB/ -2.602e-03   1.172e-03    1.269e-03    -2.508e-04   -3.717e-04  /
#      CHEB/ -2.402e-05   5.853e-05    -5.806e-03   4.295e-03    -1.869e-03  /
#      CHEB/ 7.720e-04    2.044e-04    -1.721e-04   -6.253e-05   -5.509e-06  /
#  bQOOHg(+M) <=> bQOOHa(+M)                           1.000e+00 0.000     0.000
#      TCHEB/ 180.000   1500.000 /
#      PCHEB/ 0.010     98.692   /
#      CHEB/ 10 8/
#      CHEB/ -3.420e+00   5.036e-02    -3.498e-01   -1.462e-02   6.101e-03   /
#      CHEB/ 1.037e-03    -3.452e-04   -1.253e-04   6.294e+00    1.948e+00   /
#      CHEB/ -1.223e-01   -3.352e-02   -1.150e-02   5.335e-04    1.163e-03   /
#      CHEB/ 3.390e-05    4.816e-01    6.455e-01    2.705e-04    4.491e-03   /
#      CHEB/ 4.144e-03    -4.615e-03   -1.674e-03   4.475e-04    -4.955e-01  /
#      CHEB/ 3.009e-01    1.003e-02    -2.300e-02   1.174e-02    3.209e-03   /
#      CHEB/ -2.122e-03   -8.169e-04   -2.322e-01   8.673e-02    3.997e-02   /
#      CHEB/ -2.126e-02   -1.407e-03   4.733e-03    6.783e-04    -6.892e-04  /
#      CHEB/ -3.026e-02   -1.612e-03   2.257e-02    -4.867e-04   -5.602e-03  /
#      CHEB/ 7.188e-04    1.280e-03    4.896e-05    1.294e-02    -1.003e-03  /
#      CHEB/ 1.172e-03    4.689e-03    -2.076e-03   -9.112e-04   4.814e-04   /
#      CHEB/ 1.725e-04    9.819e-03    3.325e-03    -1.477e-03   1.490e-03   /
#      CHEB/ -1.022e-04   -4.658e-04   4.693e-05    6.124e-05    1.241e-03   /
#      CHEB/ -3.032e-04   1.189e-03    -1.195e-05   -1.503e-04   -6.187e-05  /
#      CHEB/ 1.082e-05    2.889e-05    -5.772e-03   -2.238e-03   1.994e-03   /
#      CHEB/ -8.886e-05   -2.557e-04   -2.830e-05   2.714e-05    3.337e-05   /

# Reaction 8
chebyshev_reaction('bQOOH[O] (+ M) <=> bQOOHa (+ M)',
                   Tmin=180.0, Tmax=1500.0,
                   Pmin=(0.01, 'atm'), Pmax=(98.692, 'atm'),
                   coeffs=[[ 1.69500e+00,  1.31100e+00, -4.41500e-01, -7.38800e-02,  2.38100e-03,  5.69700e-03,  1.29600e-03, -1.88700e-04],
                           [ 2.55600e+00,  1.36300e+00,  1.80800e-01, -9.14000e-03, -2.82800e-02, -5.38000e-03,  1.70700e-04,  4.27800e-04],
                           [-2.97300e-02,  4.39700e-01,  6.61200e-02,  4.04300e-02, -2.02600e-03, -8.03500e-03, -1.48800e-03,  5.58900e-04],
                           [-4.34600e-01,  1.65400e-01, -1.42300e-02,  5.67200e-03,  1.37900e-02,  1.62000e-03, -1.99300e-03, -8.86800e-04],
                           [-2.27200e-01,  9.28100e-02,  5.28800e-03, -1.12800e-02,  2.60300e-03,  2.68200e-03,  6.17300e-04, -2.98700e-04],
                           [-5.01800e-02,  1.55400e-02,  5.21800e-03, -5.17800e-03, -5.43500e-04,  1.04000e-03,  6.56700e-04,  5.91400e-05],
                           [-2.84700e-03,  1.61600e-02,  7.88400e-03,  1.54100e-04, -2.41600e-03, -6.48400e-04,  2.89400e-04,  3.18300e-04],
                           [ 1.30400e-02, -3.14400e-03, -2.03300e-03,  2.11800e-03,  1.02800e-06, -1.70900e-04, -1.34700e-04, -3.61000e-05],
                           [-6.75700e-03,  7.01100e-03,  1.45900e-03,  1.09600e-03, -4.64300e-04, -4.14500e-04, -1.35500e-05,  4.99300e-05],
                           [ 3.25100e-05, -6.14500e-03, -1.97200e-03,  4.09000e-05,  7.58400e-04,  1.79800e-04, -8.20100e-05, -8.28700e-05]])

# Reaction 9
chebyshev_reaction('O2 + bR (+ M) <=> bQOOHa (+ M)',
                   Tmin=180.0, Tmax=1500.0,
                   Pmin=(0.01, 'atm'), Pmax=(98.692, 'atm'),
                   coeffs=[[ 7.52700e+00,  2.06900e-01, -2.73200e-01, -5.20600e-02, -6.48600e-03,  5.84400e-03,  1.94600e-03, -3.04400e-04],
                           [ 6.21700e-01,  1.08600e+00,  2.91300e-02,  1.03500e-02, -8.98900e-03, -8.99500e-03, -1.05000e-03,  1.03200e-03],
                           [-1.29900e-01,  4.21100e-01,  4.53700e-02, -7.18400e-03,  5.85200e-03, -6.49300e-04, -1.58700e-03, -5.90600e-04],
                           [-2.17500e-01,  7.91700e-02,  5.07800e-02, -6.09600e-03,  5.55400e-04,  1.78800e-03, -6.25900e-05, -2.82000e-04],
                           [-8.35100e-02, -1.88900e-02,  2.34400e-02,  3.62800e-03, -2.24700e-03,  6.35500e-04,  3.74700e-04,  5.73600e-05],
                           [ 1.82000e-03, -1.40300e-02,  1.26400e-03,  4.78200e-03, -5.85000e-04, -3.56000e-04,  1.79400e-04,  8.48900e-05],
                           [ 1.92700e-02,  3.65900e-03, -3.94200e-03,  1.55300e-03,  4.41100e-04, -2.59600e-04, -1.17600e-05,  1.98000e-05],
                           [ 7.96900e-03,  5.14200e-03, -2.80500e-04, -5.47200e-04,  2.38200e-04, -1.01300e-05, -1.29300e-05, -1.33600e-05],
                           [-6.12300e-04, -8.95200e-04,  1.82900e-03, -2.45200e-04, -1.55000e-04,  4.16500e-05,  5.45600e-06, -4.15800e-06],
                           [-3.55600e-03, -3.91900e-03,  1.57200e-03,  2.85400e-04, -1.67800e-04, -3.62700e-05,  3.90000e-06,  1.43400e-05]])
#  bRO2(+M) <=> bQOOH[O](+M)                           1.000e+00 0.000     0.000
#      TCHEB/ 180.000   1500.000 /
#      PCHEB/ 0.010     98.692   /
#      CHEB/ 10 8/
#      CHEB/ -4.144e+00   1.809e+00    -1.990e-01   -5.859e-02   -7.634e-03  /
#      CHEB/ 5.088e-03    2.622e-03    8.949e-05    1.031e+01    4.235e-01   /
#      CHEB/ 5.394e-02    2.642e-02    -5.999e-03   -6.017e-03   -1.867e-03  /
#      CHEB/ 3.679e-04    -5.716e-01   2.723e-01    1.457e-02    1.606e-02   /
#      CHEB/ 9.309e-04    -1.884e-03   -1.297e-03   -2.685e-04   -2.973e-01  /
#      CHEB/ 1.557e-01    -5.599e-03   4.469e-03    3.304e-03    6.149e-04   /
#      CHEB/ -4.070e-04   -3.831e-04   -1.605e-01   9.451e-02    -3.655e-03  /
#      CHEB/ -2.413e-03   1.492e-03    6.250e-04    1.783e-04    -2.732e-05  /
#      CHEB/ -5.926e-02   3.975e-02    -5.683e-03   -4.523e-03   1.260e-03   /
#      CHEB/ 9.094e-04    2.459e-04    -4.001e-05   -4.128e-02   3.018e-02   /
#      CHEB/ 2.853e-03    -3.313e-03   -8.750e-04   -2.780e-05   2.139e-04   /
#      CHEB/ 1.609e-04    -8.559e-03   7.124e-03    -2.263e-04   -1.282e-03  /
#      CHEB/ -1.403e-04   1.408e-04    2.305e-05    -5.644e-06   -1.685e-02  /
#      CHEB/ 1.105e-02    3.584e-03    -4.433e-05   -9.108e-04   -3.010e-04  /
#      CHEB/ 3.002e-05    6.792e-05    2.590e-03    -3.097e-03   -9.629e-04  /
#      CHEB/ 6.295e-04    2.857e-04    3.778e-05    -6.802e-05   -5.942e-05  /
#  bQOOHg(+M) <=> bQOOH[O](+M)                         1.000e+00 0.000     0.000
#      TCHEB/ 180.000   1500.000 /
#      PCHEB/ 0.010     98.692   /
#      CHEB/ 10 8/
#      CHEB/ -1.597e+00   3.108e-01    -3.031e-01   -4.791e-02   -3.657e-03  /
#      CHEB/ 4.697e-03    2.036e-03    -1.685e-04   5.057e+00    1.307e+00   /
#      CHEB/ -9.403e-02   3.153e-02    -7.861e-04   -7.371e-03   -2.392e-03  /
#      CHEB/ 4.586e-04    4.567e-02    7.704e-01    -4.956e-02   -5.407e-03  /
#      CHEB/ 8.456e-03    -3.036e-04   -1.581e-03   -3.599e-04   -4.231e-01  /