units(length='cm', time='s', quantity='mol', act_energy='kcal/mol')

ideal_gas(name='gas',
          elements="H D T C Ci O Oi N Ne Ar He Si S F Cl Br I X",
          species="""propene3ol       OH               disub_c4ether
                     H2O              disub_epoxy      gQOOHa
                     propene1ol       gQOOHb           ipropylOOH
                     galdoxy          galkene          CH2O
                     O2               gRO2             gQOOHg
                     gR               galdol           monosub_c4ether
                     HO2              gQOOH[O]""",
          reactions='all',
          initial_state=state(temperature=300.0, pressure=OneAtm))

#-------------------------------------------------------------------------------
# Element data
#-------------------------------------------------------------------------------

element(symbol='Ci', atomic_mass=13.003)
element(symbol='D', atomic_mass=2.014)
element(symbol='Oi', atomic_mass=18.0)
element(symbol='T', atomic_mass=3.016)
element(symbol='X', atomic_mass=195.083)
#-------------------------------------------------------------------------------
# Species data
#-------------------------------------------------------------------------------

species(name='propene3ol',
        atoms='C:3 H:6 O:1',
        thermo=(NASA([10.00, 444.81],
                     [ 3.92769709E+00,  4.89977303E-03,  1.13094874E-04,
                      -2.59008187E-07,  1.86205760E-10, -1.77878743E+04,
                       9.90805416E+00]),
                NASA([444.81, 3000.00],
                     [ 2.61720343E+00,  3.01777872E-02, -1.76511625E-05,
                       5.14864061E-09, -5.91153761E-13, -1.78047748E+04,
                       1.36683107E+01])))

species(name='OH',
        atoms='H:1 O:1',
        thermo=(NASA([10.00, 984.14],
                     [ 3.49686242E+00,  1.83973160E-04, -9.97634499E-07,
                       1.56942783E-09, -6.10128175E-13,  3.41673934E+03,
                       1.48093120E+00]),
                NASA([984.14, 3000.00],
                     [ 3.45221464E+00, -2.95124034E-04,  7.39418622E-07,
                      -2.89309866E-10,  3.53041498E-14,  3.45751599E+03,
                       1.85813897E+00])))

species(name='disub_c4ether',
        atoms='C:4 H:8 O:2',
        thermo=(NASA([10.00, 413.50],
                     [ 3.78241323E+00,  1.89501763E-02,  8.65302396E-05,
                      -1.80580575E-07,  1.13656264E-10, -3.94892611E+04,
                       1.09982450E+01]),
                NASA([413.50, 3000.00],
                     [ 4.29420885E-01,  5.13851903E-02, -3.11292293E-05,
                       9.11498284E-09, -1.03192718E-12, -3.92119668E+04,
                       2.42134976E+01])))

species(name='H2O',
        atoms='H:2 O:1',
        thermo=(NASA([10.00, 773.84],
                     [ 4.00473541E+00, -2.39729134E-04,  8.11862955E-07,
                       1.47891862E-09, -1.19783539E-12, -3.03533807E+04,
                      -9.96254147E-02]),
                NASA([773.84, 3000.00],
                     [ 3.52133374E+00,  1.05377009E-03,  6.40722099E-07,
                      -3.86240235E-10,  5.49243294E-14, -3.02424794E+04,
                       2.34173094E+00])))

species(name='disub_epoxy',
        atoms='C:4 H:8 O:2',
        thermo=(NASA([10.00, 549.41],
                     [ 3.89863211E+00,  5.97532637E-03,  1.66685676E-04,
                      -3.10743768E-07,  1.78330192E-10, -3.62645569E+04,
                       1.13847308E+01]),
                NASA([549.41, 3000.00],
                     [-6.40277648E-01,  6.05960003E-02, -4.13427220E-05,
                       1.31555461E-08, -1.57685017E-12, -3.60914401E+04,
                       2.76005436E+01])))

species(name='gQOOHa',
        atoms='C:4 H:9 O:3',
        thermo=(NASA([10.00, 160.74],
                     [ 3.80808147E+00,  2.31043884E-02,  5.26945984E-04,
                      -3.11500696E-06,  6.03881958E-09, -2.37947200E+04,
                       1.17645316E+01]),
                NASA([160.74, 3000.00],
                     [ 2.90630300E+00,  6.50241173E-02, -4.60073244E-05,
                       1.51330930E-08, -1.87074267E-12, -2.37908954E+04,
                       1.36838819E+01])))

species(name='propene1ol',
        atoms='C:3 H:6 O:1',
        thermo=(NASA([10.00, 459.42],
                     [ 3.91245344E+00,  5.85800161E-03,  1.15412006E-04,
                      -2.68014417E-07,  1.91800131E-10, -1.92111236E+04,
                       8.14807684E+00]),
                NASA([459.42, 3000.00],
                     [ 3.14049093E+00,  2.95550898E-02, -1.73843684E-05,
                       5.11506211E-09, -5.92966137E-13, -1.93193461E+04,
                       9.32215170E+00])))

species(name='gQOOHb',
        atoms='C:4 H:9 O:3',
        thermo=(NASA([10.00, 1018.67],
                     [ 3.99028351E+00,  4.29665712E-02,  2.28338778E-05,
                      -5.67914439E-08,  2.29383258E-11, -2.30490332E+04,
                       1.20326731E+01]),
                NASA([1018.67, 3000.00],
                     [ 1.38304153E+01,  3.88527019E-02, -2.19473905E-05,
                       5.78719895E-09, -5.85097740E-13, -2.68451180E+04,
                      -4.44147388E+01])))

species(name='ipropylOOH',
        atoms='C:3 H:7 O:2',
        thermo=(NASA([10.00, 405.01],
                     [ 3.30075623E+00,  7.58672756E-02, -3.35754269E-04,
                       8.05972164E-07, -6.68864582E-10, -1.05381429E+02,
                       1.43372849E+01]),
                NASA([405.01, 3000.00],
                     [ 2.51742509E+00,  3.72760950E-02, -2.12450220E-05,
                       5.83593926E-09, -6.22110649E-13,  3.38026177E+02,
                       2.20991392E+01])))

species(name='galdoxy',
        atoms='C:4 H:7 O:2',
        thermo=(NASA([10.00, 209.62],
                     [ 3.82641108E+00,  1.84758886E-02,  3.43073800E-04,
                      -1.82817005E-06,  2.98516720E-09, -1.78711912E+04,
                       1.17972706E+01]),
                NASA([209.62, 3000.00],
                     [ 4.22049016E+00,  4.03370149E-02, -2.36129482E-05,
                       6.72979114E-09, -7.47862493E-13, -1.79522610E+04,
                       8.97211724E+00])))

species(name='galkene',
        atoms='C:4 H:8 O:1',
        thermo=(NASA([10.00, 383.47],
                     [ 3.84035604E+00,  1.20378740E-02,  1.87486319E-04,
                      -5.44759148E-07,  4.80711015E-10, -2.39712969E+04,
                       1.02570291E+01]),
                NASA([383.47, 3000.00],
                     [ 4.00413385E+00,  3.79025144E-02, -2.15435710E-05,
                       6.15213311E-09, -6.97446345E-13, -2.41865862E+04,
                       6.98052628E+00])))

species(name='CH2O',
        atoms='C:1 H:2 O:1',
        thermo=(NASA([10.00, 601.31],
                     [ 4.03190845E+00, -1.93233367E-03,  8.89743345E-06,
                       2.98105926E-09, -7.90813886E-12, -1.42276270E+04,
                       3.47574660E+00]),
                NASA([601.31, 3000.00],
                     [ 1.40134195E+00,  9.48858016E-03, -4.43088317E-06,
                       9.48452194E-10, -7.43790219E-14, -1.38013869E+04,
                       1.57423780E+01])))

species(name='O2',
        atoms='O:2',
        thermo=(NASA([10.00, 605.96],
                     [ 3.50743498E+00, -4.43860349E-04,  1.45938058E-06,
                       1.61509333E-09, -2.32050052E-12, -9.24756224E+02,
                       4.72183634E+00]),
                NASA([605.96, 3000.00],
                     [ 2.87462882E+00,  2.17840991E-03, -1.18262921E-06,
                       2.86910493E-10, -2.53297146E-14, -8.19517838E+02,
                       7.69331810E+00])))

species(name='gRO2',
        atoms='C:4 H:9 O:3',
        thermo=(NASA([10.00, 177.33],
                     [ 3.70632176E+00,  3.49733664E-02,  4.64036392E-04,
                      -3.18637835E-06,  6.38178607E-09, -2.90100720E+04,
                       1.24459269E+01]),
                NASA([177.33, 3000.00],
                     [ 4.82062697E+00,  5.17179689E-02, -3.18386818E-05,
                       9.52247045E-09, -1.10180288E-12, -2.91154426E+04,
                       7.14082953E+00])))

species(name='gQOOHg',
        atoms='C:4 H:9 O:3',
        thermo=(NASA([10.00, 475.03],
                     [ 3.42273720E+00,  4.98344215E-02,  6.47820920E-05,
                      -2.49842966E-07,  1.98636537E-10, -2.17401343E+04,
                       1.41578583E+01]),
                NASA([475.03, 3000.00],
                     [ 5.94049074E+00,  5.53778585E-02, -3.71708255E-05,
                       1.17540477E-08, -1.40812095E-12, -2.22810885E+04,
                       7.09201218E-01])))

species(name='gR',
        atoms='C:4 H:9 O:1',
        thermo=(NASA([10.00, 638.24],
                     [ 3.37074633E+00,  5.17529751E-02, -6.54872940E-05,
                       6.88084237E-08, -3.21569794E-11, -1.05948896E+04,
                       1.14339669E+01]),
                NASA([638.24, 3000.00],
                     [ 3.99410860E+00,  4.06314915E-02, -2.23932510E-05,
                       6.08356263E-09, -6.49884708E-13, -1.05275149E+04,
                       9.85769960E+00])))

species(name='galdol',
        atoms='C:4 H:8 O:2',
        thermo=(NASA([10.00, 506.68],
                     [ 3.85380874E+00,  9.21272695E-03,  1.86712348E-04,
                      -3.96417049E-07,  2.55528268E-10, -4.42458658E+04,
                       1.24312743E+01]),
                NASA([506.68, 3000.00],
                     [ 1.49710213E+00,  5.65979142E-02, -3.87709084E-05,
                       1.23682052E-08, -1.48287964E-12, -4.43764752E+04,
                       1.85531759E+01])))

species(name='monosub_c4ether',
        atoms='C:4 H:8 O:2',
        thermo=(NASA([10.00, 380.36],
                     [ 3.47743996E+00,  6.08051311E-02, -2.78518945E-04,
                       8.23182713E-07, -7.87158031E-10, -3.20441271E+04,
                       1.06415154E+01]),
                NASA([380.36, 3000.00],
                     [-1.09346901E+00,  5.35985968E-02, -3.21081420E-05,
                       9.20818293E-09, -1.01830294E-12, -3.12965670E+04,
                       3.35312368E+01])))

species(name='HO2',
        atoms='H:1 O:2',
        thermo=(NASA([10.00, 891.11],
                     [ 4.02887004E+00, -1.75769289E-03,  1.08726004E-05,
                      -1.13812972E-08,  3.90113097E-12,  4.95165001E+02,
                       4.69302008E+00]),
                NASA([891.11, 3000.00],
                     [ 3.06571044E+00,  4.28505005E-03, -2.19325920E-06,
                       5.58882699E-10, -5.61246669E-14,  5.98557610E+02,
                       8.84564156E+00])))

species(name='gQOOH[O]',
        atoms='C:4 H:9 O:3',
        thermo=(NASA([10.00, 535.23],
                     [ 3.83107445E+00,  1.02302002E-02,  2.29377261E-04,
                      -4.59095575E-07,  2.77765018E-10, -1.87606591E+04,
                       1.41034859E+01]),
                NASA([535.23, 3000.00],
                     [-4.19283096E-01,  7.69784620E-02, -5.57279000E-05,
                       1.81378295E-08, -2.18295635E-12, -1.88067725E+04,
                       2.72711816E+01])))

#-------------------------------------------------------------------------------
# Reaction data
#-------------------------------------------------------------------------------

# Reaction 1
chebyshev_reaction('gQOOH[O] (+ M) <=> gRO2 (+ M)',
                   Tmin=180.0, Tmax=1500.0,
                   Pmin=(0.01, 'atm'), Pmax=(98.692, 'atm'),
                   coeffs=[[ 8.36200e+00,  8.94400e-01, -1.91600e-01,  2.28500e-02,  3.32300e-03, -1.51700e-03, -6.05500e-04,  1.57500e-04],
                           [ 1.27000e-02,  1.03600e+00, -7.78900e-02, -2.03700e-02,  5.34000e-03,  1.18700e-03, -1.19400e-03, -1.61300e-04],
                           [-7.48300e-01,  3.91400e-01,  6.11800e-02, -8.58900e-03, -8.50200e-03,  1.45900e-03,  8.60000e-04, -3.66600e-04],
                           [-4.79900e-01,  1.26900e-01,  4.45800e-02,  1.00700e-02, -5.65800e-03, -1.81000e-03,  1.13200e-03,  1.37000e-04],
                           [-2.27300e-01,  6.39600e-02, -1.83500e-03,  1.03800e-02,  2.27900e-03, -2.12700e-03, -2.17900e-05,  3.04300e-04],
                           [-8.73300e-02,  2.87200e-02, -1.62400e-02,  2.66400e-03,  4.46500e-03, -3.03700e-04, -5.29700e-04,  4.24200e-05],
                           [-2.18000e-02,  1.21100e-02, -1.64100e-02, -1.23700e-03,  2.83700e-03,  6.82500e-04, -3.01600e-04, -1.08800e-04],
                           [ 2.60300e-03,  6.28600e-03, -1.12900e-02, -2.06200e-03,  1.03500e-03,  6.32200e-04, -3.79500e-05, -7.64900e-05],
                           [ 9.02300e-03,  1.54900e-03, -4.48300e-03, -1.80600e-03,  1.43400e-05,  3.28600e-04,  5.28400e-05, -2.72700e-05],
                           [ 5.76400e-03,  2.00000e-03, -1.33800e-03, -1.06900e-03, -1.70600e-04,  8.05700e-05,  2.72300e-05, -1.71900e-06]])

# Reaction 2
chebyshev_reaction('gQOOHa (+ M) <=> gRO2 (+ M)',
                   Tmin=180.0, Tmax=1500.0,
                   Pmin=(0.01, 'atm'), Pmax=(98.692, 'atm'),
                   coeffs=[[ 8.07600e+00,  5.10700e-01, -1.57400e-01,  1.88500e-02, -1.98500e-03,  1.24300e-03, -6.12300e-05, -7.85800e-05],
                           [ 4.80600e-01,  7.85100e-01, -1.92600e-01, -6.86000e-03,  8.82300e-03, -6.41200e-04,  4.00500e-04, -1.09100e-04],
                           [-8.87900e-02,  4.71700e-01, -7.18600e-02, -2.51100e-02,  5.13200e-03,  1.70400e-03, -1.55600e-04, -1.81400e-05],
                           [-1.67900e-01,  2.13900e-01,  3.66600e-03, -2.27600e-02, -1.90100e-03,  2.75900e-03,  1.45100e-04, -1.34100e-04],
                           [-1.17200e-01,  8.57100e-02,  1.64800e-02, -6.65000e-03, -6.62200e-03,  1.57800e-03,  8.52400e-04, -1.81200e-04],
                           [-5.72000e-02,  3.21000e-02,  1.03700e-02,  2.35600e-03, -5.08300e-03, -5.84100e-04,  1.00900e-03,  4.13800e-05],
                           [-2.36800e-02,  1.26800e-02,  3.91700e-03,  3.59500e-03, -1.58100e-03, -1.59800e-03,  4.94600e-04,  2.73800e-04],
                           [-1.10700e-02,  7.37200e-03, -1.43200e-04,  2.42600e-03,  4.24400e-04, -1.24800e-03, -9.72200e-05,  2.86500e-04],
                           [-5.53200e-03,  3.71400e-03, -5.04300e-04,  6.78000e-04,  1.02900e-03, -5.40000e-04, -3.49700e-04,  1.44400e-04],
                           [-2.59300e-03,  1.35000e-03, -6.41600e-05, -2.07800e-04,  8.04100e-04, -3.82200e-05, -3.02300e-04,  2.74400e-06]])

# Reaction 3
chebyshev_reaction('gQOOHg (+ M) <=> gRO2 (+ M)',
                   Tmin=180.0, Tmax=1500.0,
                   Pmin=(0.01, 'atm'), Pmax=(98.692, 'atm'),
                   coeffs=[[ 6.30100e+00,  3.08000e-01, -1.24800e-01,  2.20500e-02,  1.76200e-03, -1.10100e-03, -8.41100e-05,  6.21700e-05],
                           [ 2.11300e+00,  5.48000e-01, -2.14600e-01,  3.27800e-02,  5.43800e-03, -2.17000e-03, -2.46900e-04,  1.31500e-04],
                           [ 2.30500e-01,  3.88600e-01, -1.35200e-01,  9.12400e-03,  8.41400e-03, -1.65600e-03, -4.83300e-04,  1.39500e-04],
                           [-1.84300e-01,  2.23600e-01, -5.90700e-02, -9.11100e-03,  8.43300e-03, -3.82900e-04, -7.37600e-04,  1.00900e-04],
                           [-1.20600e-01,  1.08300e-01, -1.37000e-02, -1.43100e-02,  5.21900e-03,  9.84400e-04, -7.54700e-04, -1.16200e-05],
                           [-3.99700e-02,  4.73400e-02,  3.01000e-03, -1.07400e-02,  1.46500e-03,  1.58500e-03, -4.58700e-04, -1.43000e-04],
                           [-1.49000e-02,  2.04900e-02,  5.31400e-03, -5.49800e-03, -7.01900e-04,  1.29800e-03, -5.61800e-05, -2.00100e-04],
                           [-9.73700e-03,  8.96400e-03,  3.85500e-03, -2.10400e-03, -1.17000e-03,  6.52100e-04,  1.99600e-04, -1.54200e-04],
                           [-5.50400e-03,  3.55100e-03,  2.46000e-03, -6.20600e-04, -8.54000e-04,  1.52000e-04,  2.39300e-04, -6.08900e-05],
                           [-2.13200e-03,  1.06000e-03,  1.51400e-03, -8.82000e-05, -4.68900e-04, -6.49600e-05,  1.59100e-04,  1.03300e-05]])

# Reaction 4
chebyshev_reaction('gQOOHb (+ M) <=> gRO2 (+ M)',
                   Tmin=180.0, Tmax=1500.0,
                   Pmin=(0.01, 'atm'), Pmax=(98.692, 'atm'),
                   coeffs=[[ 9.43200e-01,  9.45100e-01, -1.44700e-01, -4.29800e-03,  6.68800e-04,  1.78700e-05,  1.12700e-04, -6.20100e-05],
                           [ 4.38500e+00,  1.38500e+00, -1.74800e-01, -5.87300e-03, -1.79800e-03, -5.50400e-04,  2.66900e-04, -2.08400e-05],
                           [ 7.02500e-01,  4.67100e-01,  1.07100e-03,  5.55100e-03, -4.60700e-03, -2.03500e-03,  7.37000e-05,  1.73300e-04],
                           [-1.95400e-01, -2.52200e-02,  4.56900e-02,  1.28600e-02,  7.83100e-04, -2.59700e-03, -6.19500e-04,  1.79000e-04],
                           [-1.73800e-01, -3.67800e-02,  3.01300e-03,  4.09900e-03,  7.44400e-03, -6.76000e-04, -1.04600e-03, -1.05600e-04],
                           [-6.73000e-02,  4.89000e-02, -2.09700e-02, -6.62000e-03,  6.23500e-03,  1.63200e-03, -5.06100e-04, -3.28800e-04],
                           [-2.03400e-02,  4.57400e-02, -1.14800e-02, -6.52200e-03,  5.98100e-04,  1.80800e-03,  3.04100e-04, -2.02100e-04],
                           [-4.21500e-03,  5.96400e-03,  1.13200e-03, -1.81700e-03, -2.10300e-03,  6.12200e-04,  4.70800e-04,  4.96700e-05],
                           [-9.22700e-06, -7.41500e-03,  4.14200e-03, -3.42300e-04, -1.22300e-03, -1.45200e-04,  1.63100e-04,  1.24400e-04],
                           [-5.48900e-04, -9.35000e-04,  2.30600e-03, -9.00500e-04, -1.33500e-05, -2.03200e-04, -3.67300e-05,  5.69200e-05]])

# Reaction 5
chebyshev_reaction('O2 + gR (+ M) <=> gRO2 (+ M)',
                   Tmin=180.0, Tmax=1500.0,
                   Pmin=(0.01, 'atm'), Pmax=(98.692, 'atm'),
                   coeffs=[[ 7.59600e+00,  2.86800e-01, -1.21500e-01,  2.73900e-02, -2.42700e-03,  6.89900e-06,  7.87900e-06, -4.28400e-05],
                           [-8.49300e-01,  3.85500e-01, -1.36900e-01,  1.25900e-02,  7.33000e-03, -2.62200e-03,  3.92900e-04, -3.58400e-05],
                           [-2.99300e-01,  1.71200e-01, -3.36400e-02, -1.51500e-02,  8.57400e-03, -4.60200e-04, -5.86800e-04,  1.80700e-04],
                           [-1.13500e-01,  6.52900e-02,  3.45300e-03, -1.52100e-02,  3.10900e-03,  1.63900e-03, -7.44100e-04,  1.77200e-05],
                           [-5.74400e-02,  4.07800e-02,  1.05700e-03, -6.28400e-03, -4.55300e-04,  1.43100e-03, -1.18200e-04, -1.77900e-04],
                           [-3.68700e-02,  3.37400e-02, -3.58400e-03, -2.06000e-03, -4.73800e-04,  3.59900e-04,  2.42100e-04, -1.07200e-04],
                           [-2.15300e-02,  2.06700e-02, -1.49100e-03, -1.78300e-03,  1.46700e-04, -4.88900e-05,  1.31300e-04,  3.80600e-05],
                           [-9.40500e-03,  7.39100e-03,  1.65500e-03, -1.60000e-03,  3.38500e-06,  9.48600e-05, -2.92500e-05,  5.99300e-05],
                           [-2.89700e-03,  6.38700e-04,  2.26000e-03, -7.51100e-04, -3.26200e-04,  1.76000e-04, -3.29600e-05,  8.42800e-06],
                           [-7.19400e-04, -7.85700e-04,  1.35200e-03, -6.53300e-05, -3.47800e-04,  8.16600e-05,  2.25300e-05, -1.93900e-05]])
#  gRO2(+M) <=> gQOOH[O](+M)                           1.000e+00 0.000     0.000
#      TCHEB/ 180.000   1500.000 /
#      PCHEB/ 0.010     98.692   /
#      CHEB/ 10 8/
#      CHEB/ -5.972e+00   8.944e-01    -1.916e-01   2.285e-02    3.323e-03   /
#      CHEB/ -1.517e-03   -6.055e-04   1.575e-04    1.063e+01    1.036e+00   /
#      CHEB/ -7.789e-02   -2.037e-02   5.340e-03    1.187e-03    -1.194e-03  /
#      CHEB/ -1.613e-04   -5.753e-01   3.914e-01    6.118e-02    -8.589e-03  /
#      CHEB/ -8.502e-03   1.459e-03    8.600e-04    -3.666e-04   -3.551e-01  /
#      CHEB/ 1.269e-01    4.458e-02    1.007e-02    -5.658e-03   -1.810e-03  /
#      CHEB/ 1.132e-03    1.370e-04    -1.736e-01   6.396e-02    -1.835e-03  /
#      CHEB/ 1.038e-02    2.279e-03    -2.127e-03   -2.179e-05   3.043e-04   /
#      CHEB/ -6.828e-02   2.872e-02    -1.624e-02   2.664e-03    4.465e-03   /
#      CHEB/ -3.037e-04   -5.297e-04   4.242e-05    -1.558e-02   1.211e-02   /
#      CHEB/ -1.641e-02   -1.237e-03   2.837e-03    6.825e-04    -3.016e-04  /
#      CHEB/ -1.088e-04   4.522e-03    6.286e-03    -1.129e-02   -2.062e-03  /
#      CHEB/ 1.035e-03    6.322e-04    -3.795e-05   -7.649e-05   9.485e-03   /
#      CHEB/ 1.549e-03    -4.483e-03   -1.806e-03   1.434e-05    3.286e-04   /
#      CHEB/ 5.284e-05    -2.727e-05   5.736e-03    2.000e-03    -1.338e-03  /
#      CHEB/ -1.069e-03   -1.706e-04   8.057e-05    2.723e-05    -1.719e-06  /

# Reaction 6
chebyshev_reaction('gQOOHa (+ M) <=> gQOOH[O] (+ M)',
                   Tmin=180.0, Tmax=1500.0,
                   Pmin=(0.01, 'atm'), Pmax=(98.692, 'atm'),
                   coeffs=[[-1.86200e+00, -3.09500e-01, -4.17900e-01,  5.42500e-02,  3.70600e-03, -3.88000e-03,  3.00100e-04,  2.23100e-04],
                           [ 6.07200e+00,  1.71600e+00, -1.15000e-01, -7.13900e-02,  1.47100e-02,  3.35500e-03, -2.17500e-03,  2.53900e-04],
                           [-7.43500e-01,  6.62800e-01,  8.49600e-02, -3.43300e-02, -1.28300e-02,  4.58300e-03,  1.44100e-03, -6.27300e-04],
                           [-5.07500e-01,  1.87300e-01,  7.24500e-02, -1.72400e-03, -1.13500e-02,  6.28500e-04,  1.83900e-03, -2.15400e-04],
                           [-1.90000e-01,  8.88200e-02, -1.22500e-04,  6.24700e-03, -4.75100e-04, -1.61000e-03,  7.79900e-04,  1.45200e-04],
                           [-2.56400e-02,  3.43000e-02, -1.61300e-02,  9.04600e-04,  2.31600e-03, -7.24600e-04,  5.47000e-05,  2.02900e-04],
                           [ 1.62400e-02,  9.59900e-03, -1.09200e-02, -1.27000e-03,  8.94100e-04, -2.38400e-04, -1.23700e-04,  2.25800e-04],
                           [ 7.72700e-03,  8.12900e-03, -6.11400e-03, -1.14500e-04, -1.34000e-05, -5.10400e-04, -1.48200e-04,  1.87600e-04],
                           [ 2.70900e-03, -4.37700e-05,  1.13500e-03,  2.12800e-04, -2.26300e-04, -4.04200e-04, -2.16800e-04,  7.08700e-05],
                           [-1.03800e-03, -1.04200e-03,  2.65500e-03,  1.68300e-04,  1.21400e-04, -1.58300e-04, -2.33500e-04, -1.91400e-05]])

# Reaction 7
chebyshev_reaction('gQOOHg (+ M) <=> gQOOH[O] (+ M)',
                   Tmin=180.0, Tmax=1500.0,
                   Pmin=(0.01, 'atm'), Pmax=(98.692, 'atm'),
                   coeffs=[[-1.57200e+00, -5.36700e-01, -3.45000e-01,  3.91700e-02,  8.75400e-03, -3.03800e-03, -1.17400e-03,  4.31300e-04],
                           [ 5.56400e+00,  1.49400e+00, -1.52400e-01, -1.23300e-02,  2.26700e-03,  2.44500e-03, -6.05400e-04, -5.82800e-04],
                           [-3.90300e-01,  6.02200e-01, -9.13800e-03,  6.63000e-04, -2.08100e-04, -2.11000e-03,  1.06100e-03,  4.47800e-05],
                           [-4.14100e-01,  2.23100e-01, -1.93300e-02,  5.06900e-04,  1.07000e-02, -2.88400e-03, -7.44000e-04,  5.31600e-04],
                           [-1.24800e-01,  9.38200e-02, -3.14000e-02, -1.10000e-02,  1.13800e-02,  1.57500e-03, -1.76400e-03, -4.48800e-05],
                           [ 1.65500e-02,  2.89400e-02, -1.72600e-02, -1.18800e-02,  2.63500e-03,  3.41800e-03, -4.26700e-04, -4.83900e-04],
                           [ 2.64200e-02,  1.40500e-02, -3.82400e-03, -7.49500e-03, -2.44900e-03,  2.00500e-03,  5.68700e-04, -3.05900e-04],
                           [ 4.19200e-03,  1.07700e-02,  4.78200e-03, -3.95700e-03, -2.81300e-03,  4.35100e-04,  5.44100e-04, -3.67500e-05],
                           [-3.61700e-03,  1.60100e-03,  8.38400e-03, -1.24200e-03, -1.97000e-03, -1.86600e-04,  2.87600e-04,  4.84800e-05],
                           [-6.27300e-03,  1.20700e-03,  5.33500e-03,  4.12200e-05, -7.80800e-04, -2.62100e-04,  7.25100e-05,  5.29800e-05]])

# Reaction 8
chebyshev_reaction('gQOOHb (+ M) <=> gQOOH[O] (+ M)',
                   Tmin=180.0, Tmax=1500.0,
                   Pmin=(0.01, 'atm'), Pmax=(98.692, 'atm'),
                   coeffs=[[-6.83600e+00,  4.64500e-01, -4.36500e-01,  5.96600e-03,  1.43700e-02, -1.36100e-03, -1.88600e-03,  1.75600e-04],
                           [ 8.02600e+00,  2.03900e+00,  2.14400e-02, -4.96700e-02, -1.53900e-02,  3.33800e-03,  1.43600e-03, -6.15300e-04],
                           [-1.70500e-01,  4.18100e-01,  1.48800e-01,  1.97000e-02, -1.28000e-02, -5.05400e-03,  1.31900e-03,  4.78800e-04],
                           [-4.29600e-01,  2.96700e-02,  1.50900e-02,  2.52300e-02,  1.05800e-02, -3.81900e-03, -1.46300e-03,  2.33900e-04],
                           [-1.23400e-01,  2.09600e-02, -4.09000e-02, -1.66800e-03,  1.29600e-02,  2.09000e-03, -1.52700e-03, -3.78500e-04],
                           [ 1.83000e-02,  1.79600e-02, -2.17700e-02, -1.14600e-02,  2.70200e-03,  3.25400e-03,  1.33900e-04, -3.25500e-04],
                           [ 2.48600e-02,  6.91300e-03, -1.92500e-03, -6.87900e-03, -2.50200e-03,  1.28600e-03,  6.78000e-04, -3.28900e-05],
                           [ 5.71400e-03,  3.45000e-03,  3.33600e-03, -2.37800e-03, -1.77000e-03, -1.29400e-04,  3.05700e-04,  9.43300e-05],
                           [-5.46400e-03,  4.44800e-03,  4.12900e-03, -1.26200e-03, -7.01100e-04, -2.35900e-04,  7.50500e-05,  7.51800e-05],
                           [-8.50200e-03,  5.45300e-03,  3.14100e-03, -9.40100e-04, -3.97600e-04, -5.06400e-06,  1.12400e-06,  3.96200e-05]])

# Reaction 9
chebyshev_reaction('O2 + gR (+ M) <=> gQOOH[O] (+ M)',
                   Tmin=180.0, Tmax=1500.0,
                   Pmin=(0.01, 'atm'), Pmax=(98.692, 'atm'),
                   coeffs=[[ 2.26900e+00, -1.81600e-01, -3.38400e-01, -5.79100e-03,  1.05400e-02,  4.39100e-03, -1.82800e-03, -8.88400e-04],
                           [-3.34300e-01,  9.22800e-01,  3.77900e-02,  1.12900e-02, -1.34200e-02, -6.42900e-03,  3.22200e-03,  9.34400e-04],
                           [-4.73900e-01,  3.04900e-01,  2.37000e-02,  2.58700e-04,  1.04500e-02, -2.30800e-03, -1.72300e-03,  2.47700e-04],
                           [-1.94100e-01,  1.98700e-02, -4.32100e-03, -5.46400e-03,  1.02300e-02,  2.47000e-03, -1.80200e-03, -2.78500e-04],
                           [-3.88300e-02,  2.93600e-02, -1.07800e-02, -1.30300e-02,  2.16100e-04,  3.98800e-03,  6.04300e-04, -5.11300e-04],
                           [ 2.26300e-02,  2.44300e-02, -7.10800e-03, -5.97200e-03, -2.30100e-03,  5.78500e-04,  7.97400e-04,  9.49600e-05],
                           [ 8.98000e-03,  2.03200e-02,  7.75800e-04, -2.96400e-03, -1.49500e-03, -5.38700e-04,  2.34900e-04,  2.02600e-04],
                           [-6.74400e-03,  1.11100e-02,  4.55300e-03, -1.63900e-03, -6.81200e-04, -1.60100e-04, -1.16200e-04,  5.51400e-05],
                           [-3.80600e-03, -1.83500e-03,  3.48100e-03,  4.74000e-04, -2.67900e-04, -6.89600e-05, -1.48800e-04,  4.10100e-06],
                           [-4.91300e-03,  6.12500e-06,  1.77300e-03,  1.98100e-04, -2.59100e-04,  1.29000e-04,  1.29900e-05, -5.98900e-05]])
#  gRO2(+M) <=> gQOOHa(+M)                             1.000e+00 0.000     0.000
#      TCHEB/ 180.000   1500.000 /
#      PCHEB/ 0.010     98.692   /
#      CHEB/ 10 8/
#      CHEB/ 7.205e-01    5.107e-01    -1.574e-01   1.885e-02    -1.985e-03  /
#      CHEB/ 1.243e-03    -6.123e-05   -7.858e-05   6.237e+00    7.851e-01   /
#      CHEB/ -1.926e-01   -6.860e-03   8.823e-03    -6.412e-04   4.005e-04   /
#      CHEB/ -1.091e-04   7.292e-02    4.717e-01    -7.186e-02   -2.511e-02  /
#      CHEB/ 5.132e-03    1.704e-03    -1.556e-04   -1.814e-05   -9.374e-02  /
#      CHEB/ 2.139e-01    3.666e-03    -2.276e-02   -1.901e-03   2.759e-03   /
#      CHEB/ 1.451e-04    -1.341e-04   -8.869e-02   8.571e-02    1.648e-02   /
#      CHEB/ -6.650e-03   -6.622e-03   1.578e-03    8.524e-04    -1.812e-04  /
#      CHEB/ -4.741e-02   3.210e-02    1.037e-02    2.356e-03    -5.083e-03  /
#      CHEB/ -5.841e-04   1.009e-03    4.138e-05    -2.077e-02   1.268e-02   /
#      CHEB/ 3.917e-03    3.595e-03    -1.581e-03   -1.598e-03   4.946e-04   /
#      CHEB/ 2.738e-04    -1.044e-02   7.372e-03    -1.432e-04   2.426e-03   /
#      CHEB/ 4.244e-04    -1.248e-03   -9.722e-05   2.865e-04    -5.536e-03  /
#      CHEB/ 3.714e-03    -5.043e-04   6.780e-04    1.029e-03    -5.400e-04  /
#      CHEB/ -3.497e-04   1.444e-04    -2.711e-03   1.350e-03    -6.416e-05  /
#      CHEB/ -2.078e-04   8.041e-04    -3.822e-05   -3.023e-04   2.744e-06   /
#  gQOOH[O](+M) <=> gQOOHa(+M)                         1.000e+00 0.000     0.000
#      TCHEB/ 180.000   1500.000 /
#      PCHEB/ 0.010     98.692   /
#      CHEB/ 10 8/
#      CHEB/ 5.117e+00    -3.095e-01   -4.179e-01   5.425e-02    3.706e-03   /
#      CHEB/ -3.880e-03   3.001e-04    2.231e-04    1.211e+00    1.716e+00   /
#      CHEB/ -1.150e-01   -7.139e-02   1.471e-02    3.355e-03    -2.175e-03  /
#      CHEB/ 2.539e-04    -7.548e-01   6.628e-01    8.496e-02    -3.433e-02  /
#      CHEB/ -1.283e-02   4.583e-03    1.441e-03    -6.273e-04   -5.581e-01  /
#      CHEB/ 1.873e-01    7.245e-02    -1.724e-03   -1.135e-02   6.285e-04   /
#      CHEB/ 1.839e-03    -2.154e-04   -2.152e-01   8.882e-02    -1.225e-04  /
#      CHEB/ 6.247e-03    -4.751e-04   -1.610e-03   7.799e-04    1.452e-04   /
#      CHEB/ -3.490e-02   3.430e-02    -1.613e-02   9.046e-04    2.316e-03   /
#      CHEB/ -7.246e-04   5.470e-05    2.029e-04    1.293e-02    9.599e-03   /
#      CHEB/ -1.092e-02   -1.270e-03   8.941e-04    -2.384e-04   -1.237e-04  /
#      CHEB/ 2.258e-04    6.440e-03    8.129e-03    -6.114e-03   -1.145e-04  /
#      CHEB/ -1.340e-05   -5.104e-04   -1.482e-04   1.876e-04    2.244e-03   /
#      CHEB/ -4.377e-05   1.135e-03    2.128e-04    -2.263e-04   -4.042e-04  /