units(length='cm', time='s', quantity='mol', act_energy='kcal/mol')

ideal_gas(name='gas',
          elements="H D T C Ci O Oi N Ne Ar He Si S F Cl Br I X",
          species="""propene3ol       OH               disub_c4ether
                     H2O              disub_epoxy      gQOOHa
                     propene1ol       gQOOHb           ipropylOOH
                     galdoxy          galkene          CH2O
                     O2               gRO2             gQOOHg
                     gR               galdol           monosub_c4ether
                     HO2              gQOOH[O]""",
          reactions='all',
          initial_state=state(temperature=300.0, pressure=OneAtm))

#-------------------------------------------------------------------------------
# Element data
#-------------------------------------------------------------------------------

element(symbol='Ci', atomic_mass=13.003)
element(symbol='D', atomic_mass=2.014)
element(symbol='Oi', atomic_mass=18.0)
element(symbol='T', atomic_mass=3.016)
element(symbol='X', atomic_mass=195.083)
#-------------------------------------------------------------------------------
# Species data
#-------------------------------------------------------------------------------

species(name='propene3ol',
        atoms='C:3 H:6 O:1',
        thermo=(NASA([10.00, 444.81],
                     [ 3.92769709E+00,  4.89977303E-03,  1.13094874E-04,
                      -2.59008187E-07,  1.86205760E-10, -1.46023439E+04,
                       9.90805416E+00]),
                NASA([444.81, 3000.00],
                     [ 2.61720343E+00,  3.01777872E-02, -1.76511625E-05,
                       5.14864061E-09, -5.91153761E-13, -1.46192444E+04,
                       1.36683107E+01])))

species(name='OH',
        atoms='H:1 O:1',
        thermo=(NASA([10.00, 984.14],
                     [ 3.49686242E+00,  1.83973160E-04, -9.97634499E-07,
                       1.56942783E-09, -6.10128175E-13,  3.41673934E+03,
                       1.48093120E+00]),
                NASA([984.14, 3000.00],
                     [ 3.45221464E+00, -2.95124034E-04,  7.39418622E-07,
                      -2.89309866E-10,  3.53041498E-14,  3.45751599E+03,
                       1.85813897E+00])))

species(name='disub_c4ether',
        atoms='C:4 H:8 O:2',
        thermo=(NASA([10.00, 413.50],
                     [ 3.78241323E+00,  1.89501763E-02,  8.65302396E-05,
                      -1.80580575E-07,  1.13656264E-10, -3.84605955E+04,
                       1.09982450E+01]),
                NASA([413.50, 3000.00],
                     [ 4.29420885E-01,  5.13851903E-02, -3.11292293E-05,
                       9.11498284E-09, -1.03192718E-12, -3.81833012E+04,
                       2.42134976E+01])))

species(name='H2O',
        atoms='H:2 O:1',
        thermo=(NASA([10.00, 773.84],
                     [ 4.00473541E+00, -2.39729134E-04,  8.11862955E-07,
                       1.47891862E-09, -1.19783539E-12, -3.03533807E+04,
                      -9.96254147E-02]),
                NASA([773.84, 3000.00],
                     [ 3.52133374E+00,  1.05377009E-03,  6.40722099E-07,
                      -3.86240235E-10,  5.49243294E-14, -3.02424794E+04,
                       2.34173094E+00])))

species(name='disub_epoxy',
        atoms='C:4 H:8 O:2',
        thermo=(NASA([10.00, 549.41],
                     [ 3.89863211E+00,  5.97532637E-03,  1.66685676E-04,
                      -3.10743768E-07,  1.78330192E-10, -3.56584284E+04,
                       1.13847308E+01]),
                NASA([549.41, 3000.00],
                     [-6.40277648E-01,  6.05960003E-02, -4.13427220E-05,
                       1.31555461E-08, -1.57685017E-12, -3.54853116E+04,
                       2.76005436E+01])))

species(name='gQOOHa',
        atoms='C:4 H:9 O:3',
        thermo=(NASA([10.00, 160.74],
                     [ 3.80808147E+00,  2.31043884E-02,  5.26945984E-04,
                      -3.11500696E-06,  6.03881958E-09, -2.62036986E+04,
                       1.17645316E+01]),
                NASA([160.74, 3000.00],
                     [ 2.90630300E+00,  6.50241173E-02, -4.60073244E-05,
                       1.51330930E-08, -1.87074267E-12, -2.61998740E+04,
                       1.36838819E+01])))

species(name='propene1ol',
        atoms='C:3 H:6 O:1',
        thermo=(NASA([10.00, 459.42],
                     [ 3.91245344E+00,  5.85800161E-03,  1.15412006E-04,
                      -2.68014417E-07,  1.91800131E-10, -1.81983481E+04,
                       8.14807684E+00]),
                NASA([459.42, 3000.00],
                     [ 3.14049093E+00,  2.95550898E-02, -1.73843684E-05,
                       5.11506211E-09, -5.92966137E-13, -1.83065706E+04,
                       9.32215170E+00])))

species(name='gQOOHb',
        atoms='C:4 H:9 O:3',
        thermo=(NASA([10.00, 1018.67],
                     [ 3.99028351E+00,  4.29665712E-02,  2.28338778E-05,
                      -5.67914439E-08,  2.29383258E-11, -2.42534636E+04,
                       1.20326731E+01]),
                NASA([1018.67, 3000.00],
                     [ 1.38304153E+01,  3.88527019E-02, -2.19473905E-05,
                       5.78719895E-09, -5.85097740E-13, -2.80495484E+04,
                      -4.44147388E+01])))

species(name='ipropylOOH',
        atoms='C:3 H:7 O:2',
        thermo=(NASA([10.00, 405.01],
                     [ 3.30075623E+00,  7.58672756E-02, -3.35754269E-04,
                       8.05972164E-07, -6.68864582E-10, -6.57153172E+02,
                       1.43372849E+01]),
                NASA([405.01, 3000.00],
                     [ 2.51742509E+00,  3.72760950E-02, -2.12450220E-05,
                       5.83593926E-09, -6.22110649E-13, -2.13745566E+02,
                       2.20991392E+01])))

species(name='galdoxy',
        atoms='C:4 H:7 O:2',
        thermo=(NASA([10.00, 209.62],
                     [ 3.82641108E+00,  1.84758886E-02,  3.43073800E-04,
                      -1.82817005E-06,  2.98516720E-09, -1.86301790E+04,
                       1.17972706E+01]),
                NASA([209.62, 3000.00],
                     [ 4.22049016E+00,  4.03370149E-02, -2.36129482E-05,
                       6.72979114E-09, -7.47862493E-13, -1.87112488E+04,
                       8.97211724E+00])))

species(name='galkene',
        atoms='C:4 H:8 O:1',
        thermo=(NASA([10.00, 383.47],
                     [ 3.84035604E+00,  1.20378740E-02,  1.87486319E-04,
                      -5.44759148E-07,  4.80711015E-10, -1.96457370E+04,
                       1.02570291E+01]),
                NASA([383.47, 3000.00],
                     [ 4.00413385E+00,  3.79025144E-02, -2.15435710E-05,
                       6.15213311E-09, -6.97446345E-13, -1.98610263E+04,
                       6.98052628E+00])))

species(name='CH2O',
        atoms='C:1 H:2 O:1',
        thermo=(NASA([10.00, 601.31],
                     [ 4.03190845E+00, -1.93233367E-03,  8.89743345E-06,
                       2.98105926E-09, -7.90813886E-12, -1.42276270E+04,
                       3.47574660E+00]),
                NASA([601.31, 3000.00],
                     [ 1.40134195E+00,  9.48858016E-03, -4.43088317E-06,
                       9.48452194E-10, -7.43790219E-14, -1.38013869E+04,
                       1.57423780E+01])))

species(name='O2',
        atoms='O:2',
        thermo=(NASA([10.00, 605.96],
                     [ 3.50743498E+00, -4.43860349E-04,  1.45938058E-06,
                       1.61509333E-09, -2.32050052E-12, -9.24756224E+02,
                       4.72183634E+00]),
                NASA([605.96, 3000.00],
                     [ 2.87462882E+00,  2.17840991E-03, -1.18262921E-06,
                       2.86910493E-10, -2.53297146E-14, -8.19517838E+02,
                       7.69331810E+00])))

species(name='gRO2',
        atoms='C:4 H:9 O:3',
        thermo=(NASA([10.00, 177.33],
                     [ 3.70632176E+00,  3.49733664E-02,  4.64036392E-04,
                      -3.18637835E-06,  6.38178607E-09, -2.98809276E+04,
                       1.24459269E+01]),
                NASA([177.33, 3000.00],
                     [ 4.82062697E+00,  5.17179689E-02, -3.18386818E-05,
                       9.52247045E-09, -1.10180288E-12, -2.99862982E+04,
                       7.14082953E+00])))

species(name='gQOOHg',
        atoms='C:4 H:9 O:3',
        thermo=(NASA([10.00, 475.03],
                     [ 3.42273720E+00,  4.98344215E-02,  6.47820920E-05,
                      -2.49842966E-07,  1.98636537E-10, -1.99112342E+04,
                       1.41578583E+01]),
                NASA([475.03, 3000.00],
                     [ 5.94049074E+00,  5.53778585E-02, -3.71708255E-05,
                       1.17540477E-08, -1.40812095E-12, -2.04521884E+04,
                       7.09201218E-01])))

species(name='gR',
        atoms='C:4 H:9 O:1',
        thermo=(NASA([10.00, 638.24],
                     [ 3.37074633E+00,  5.17529751E-02, -6.54872940E-05,
                       6.88084237E-08, -3.21569794E-11, -1.22788595E+04,
                       1.14339669E+01]),
                NASA([638.24, 3000.00],
                     [ 3.99410860E+00,  4.06314915E-02, -2.23932510E-05,
                       6.08356263E-09, -6.49884708E-13, -1.22114847E+04,
                       9.85769960E+00])))

species(name='galdol',
        atoms='C:4 H:8 O:2',
        thermo=(NASA([10.00, 506.68],
                     [ 3.85380874E+00,  9.21272695E-03,  1.86712348E-04,
                      -3.96417049E-07,  2.55528268E-10, -4.63235992E+04,
                       1.24312743E+01]),
                NASA([506.68, 3000.00],
                     [ 1.49710213E+00,  5.65979142E-02, -3.87709084E-05,
                       1.23682052E-08, -1.48287964E-12, -4.64542086E+04,
                       1.85531759E+01])))

species(name='monosub_c4ether',
        atoms='C:4 H:8 O:2',
        thermo=(NASA([10.00, 380.36],
                     [ 3.47743996E+00,  6.08051311E-02, -2.78518945E-04,
                       8.23182713E-07, -7.87158031E-10, -3.20062813E+04,
                       1.06415154E+01]),
                NASA([380.36, 3000.00],
                     [-1.09346901E+00,  5.35985968E-02, -3.21081420E-05,
                       9.20818293E-09, -1.01830294E-12, -3.12587213E+04,
                       3.35312368E+01])))

species(name='HO2',
        atoms='H:1 O:2',
        thermo=(NASA([10.00, 891.11],
                     [ 4.02887004E+00, -1.75769289E-03,  1.08726004E-05,
                      -1.13812972E-08,  3.90113097E-12,  4.95165001E+02,
                       4.69302008E+00]),
                NASA([891.11, 3000.00],
                     [ 3.06571044E+00,  4.28505005E-03, -2.19325920E-06,
                       5.58882699E-10, -5.61246669E-14,  5.98557610E+02,
                       8.84564156E+00])))

species(name='gQOOH[O]',
        atoms='C:4 H:9 O:3',
        thermo=(NASA([10.00, 535.23],
                     [ 3.83107445E+00,  1.02302002E-02,  2.29377261E-04,
                      -4.59095575E-07,  2.77765018E-10, -1.83681769E+04,
                       1.41034859E+01]),
                NASA([535.23, 3000.00],
                     [-4.19283096E-01,  7.69784620E-02, -5.57279000E-05,
                       1.81378295E-08, -2.18295635E-12, -1.84142903E+04,
                       2.72711816E+01])))

#-------------------------------------------------------------------------------
# Reaction data
#-------------------------------------------------------------------------------

# Reaction 1
chebyshev_reaction('gQOOH[O] (+ M) <=> gRO2 (+ M)',
                   Tmin=180.0, Tmax=1500.0,
                   Pmin=(0.01, 'atm'), Pmax=(98.692, 'atm'),
                   coeffs=[[ 5.87900e+00,  1.94300e+00, -8.47500e-02, -2.74700e-02, -5.27300e-03,  2.12000e-04,  3.29800e-04,  1.12200e-04],
                           [-5.68700e+00,  3.10700e-01,  6.46300e-02,  2.19300e-02,  1.71000e-03, -3.23500e-04,  1.92300e-04,  1.24900e-04],
                           [-3.40000e+00,  5.22000e-02, -4.55400e-02, -1.17200e-02, -5.67100e-04,  1.62900e-03,  8.04400e-04,  1.89400e-04],
                           [-1.83900e+00,  6.01200e-02, -1.34800e-02, -5.68600e-03, -2.18000e-03, -3.92700e-04,  3.35300e-05,  5.44300e-05],
                           [-9.90500e-01,  4.29100e-02,  9.67700e-03,  3.55400e-03,  1.10500e-03,  3.03700e-04, -6.31000e-06, -9.03200e-05],
                           [-5.76600e-01,  3.69600e-03,  1.21800e-02,  5.16500e-03,  1.81500e-03,  4.53900e-04,  6.29900e-05, -1.73100e-05],
                           [-3.33800e-01, -2.28500e-02,  8.12600e-03,  3.21000e-03,  5.50500e-04, -1.25500e-04, -8.55100e-05, -3.41100e-06],
                           [-1.47200e-01, -4.08300e-02, -7.91200e-04,  8.97100e-04,  9.36200e-05, -1.68100e-04, -1.23500e-04, -3.80300e-05],
                           [-5.78300e-02, -3.43000e-02, -3.39200e-03,  4.70900e-04, -4.17800e-05, -1.91100e-04, -9.27800e-05, -1.23800e-05],
                           [-1.64100e-02, -1.99800e-02, -5.06600e-03, -5.23300e-04, -3.43000e-04, -1.94400e-04, -2.35600e-05,  3.36000e-05]])

# Reaction 2
chebyshev_reaction('gQOOHa (+ M) <=> gRO2 (+ M)',
                   Tmin=180.0, Tmax=1500.0,
                   Pmin=(0.01, 'atm'), Pmax=(98.692, 'atm'),
                   coeffs=[[ 1.13200e+00,  7.83600e-01, -5.49900e-02,  1.62600e-03,  2.13700e-03,  5.51200e-05, -9.40900e-05,  2.29100e-05],
                           [ 1.87200e+00,  1.20200e+00, -2.74300e-02, -6.46900e-03,  4.40900e-03, -6.37300e-05, -3.74800e-05,  4.58400e-06],
                           [-2.44200e+00,  4.91400e-01,  7.79000e-02, -1.62100e-03, -1.17300e-03,  6.47700e-04,  5.65600e-05, -4.31500e-05],
                           [-1.67300e+00, -3.67000e-02,  8.36300e-02,  1.64700e-02, -3.58900e-03, -1.56700e-05,  2.13800e-04, -3.17800e-05],
                           [-1.03000e+00, -2.14500e-01,  2.05500e-02,  2.10900e-02,  1.05700e-03, -9.39000e-04, -1.41500e-05,  5.96600e-05],
                           [-5.71900e-01, -1.72800e-01, -3.07200e-02,  8.19200e-03,  4.92800e-03, -1.48200e-04, -3.46400e-04,  3.50700e-05],
                           [-2.68700e-01, -8.38000e-02, -3.77600e-02, -6.06800e-03,  3.06000e-03,  1.13300e-03, -1.50000e-04, -8.04200e-05],
                           [-1.12300e-01, -2.65800e-02, -1.88700e-02, -9.96600e-03, -1.22000e-03,  1.01900e-03,  3.21700e-04, -6.08300e-05],
                           [-7.36200e-03, -4.01700e-03, -1.45200e-03, -5.03700e-03, -3.09300e-03, -2.14000e-04,  4.11000e-04,  8.16700e-05],
                           [-1.24600e-02,  1.93400e-03,  3.20000e-03,  1.44000e-03, -1.90500e-03, -9.86400e-04,  2.65400e-05,  1.34400e-04]])

# Reaction 3
chebyshev_reaction('gQOOHg (+ M) <=> gRO2 (+ M)',
                   Tmin=180.0, Tmax=1500.0,
                   Pmin=(0.01, 'atm'), Pmax=(98.692, 'atm'),
                   coeffs=[[ 3.90900e+00,  1.01700e+00, -8.10600e-02,  1.75000e-02, -3.70500e-04, -2.73900e-04, -3.57700e-05, -6.26700e-06],
                           [-4.50400e+00,  1.19500e+00,  2.50300e-02, -5.97700e-03,  6.43200e-03, -1.01300e-03, -2.94300e-04,  1.31400e-04],
                           [-3.49300e+00,  3.53900e-02,  1.04800e-01,  9.93600e-03, -2.59600e-03,  9.98100e-04, -1.34200e-04, -6.83200e-05],
                           [-1.85500e+00, -3.07500e-01, -1.92700e-02,  2.96900e-02,  5.84700e-04, -1.20700e-03,  4.37400e-04, -2.59900e-05],
                           [-8.40100e-01, -9.46900e-02, -7.85300e-02,  7.40100e-04,  7.91100e-03, -3.32200e-04, -3.35300e-04,  1.51600e-04],
                           [-4.27100e-01,  5.40700e-02, -1.35300e-02, -1.81600e-02,  3.37800e-04,  2.33900e-03, -9.34700e-05, -1.70200e-04],
                           [-2.63500e-01,  2.26100e-03,  3.23300e-02,  1.03800e-03, -6.44700e-03,  1.79200e-04,  8.66400e-04, -1.23200e-04],
                           [-1.58100e-01, -7.15100e-02,  4.85500e-03,  1.47600e-02,  4.52600e-04, -2.53200e-03,  1.18300e-04,  3.38900e-04],
                           [-6.62000e-02, -6.29800e-02, -3.07400e-02,  2.88800e-03,  5.84600e-03, -2.50700e-04, -8.89300e-04,  1.41600e-04],
                           [-1.65400e-03, -2.22300e-02, -2.21100e-02, -1.13400e-02,  7.92700e-04,  2.22200e-03, -6.88600e-05, -3.18500e-04]])

# Reaction 4
chebyshev_reaction('gQOOHb (+ M) <=> gRO2 (+ M)',
                   Tmin=180.0, Tmax=1500.0,
                   Pmin=(0.01, 'atm'), Pmax=(98.692, 'atm'),
                   coeffs=[[-3.11800e-01,  8.52700e-01,  1.64400e-02, -1.48000e-02, -3.78300e-04,  1.04500e-03, -3.06300e-05, -6.38700e-05],
                           [ 1.92600e+00,  1.30300e+00,  5.97900e-02, -2.16900e-02, -1.25900e-04,  1.23900e-03, -5.46700e-05, -7.40800e-05],
                           [-2.32400e+00,  5.05300e-01,  7.34300e-02,  1.82800e-03,  3.19300e-04, -1.21300e-04, -1.05100e-04,  2.45500e-05],
                           [-1.56300e+00, -5.53400e-02,  2.99000e-02,  1.83200e-02,  2.12700e-03, -8.17500e-04, -1.45200e-04,  5.80100e-05],
                           [-9.68500e-01, -1.94100e-01, -1.95900e-02,  1.26500e-02,  3.38200e-03, -2.38900e-04, -1.00400e-04,  1.21200e-05],
                           [-4.79300e-01, -1.17400e-01, -2.88400e-02, -1.07200e-03,  1.53000e-03,  5.16500e-04,  8.75000e-05, -2.84300e-05],
                           [-2.39100e-01, -3.94500e-02, -1.21800e-02, -5.23700e-03, -1.17000e-03,  3.03000e-04,  1.95900e-04,  5.84500e-07],
                           [-9.74100e-02, -1.89500e-02,  3.32300e-04, -1.08300e-03, -1.43800e-03, -3.30500e-04,  5.41100e-05,  3.37600e-05],
                           [-4.13800e-02, -2.28500e-02, -2.05800e-04,  2.17500e-03,  4.18200e-05, -3.71400e-04, -1.22600e-04,  6.28900e-06],
                           [ 2.82700e-03, -2.08400e-02, -5.97500e-03,  1.25900e-03,  9.17800e-04,  6.58800e-05, -9.35500e-05, -3.07300e-05]])

# Reaction 5
chebyshev_reaction('O2 + gR (+ M) <=> gRO2 (+ M)',
                   Tmin=180.0, Tmax=1500.0,
                   Pmin=(0.01, 'atm'), Pmax=(98.692, 'atm'),
                   coeffs=[[ 1.28100e+01,  5.16700e-01, -4.50400e-02,  2.65200e-03, -5.19800e-04,  1.19100e-04, -1.02900e-05,  3.55400e-06],
                           [-2.26800e+00,  8.68500e-01, -4.67100e-02, -2.59700e-03,  3.53800e-04, -1.69600e-05,  1.54800e-05,  2.72900e-06],
                           [-1.49400e+00,  5.28900e-01,  1.95300e-02, -7.53100e-03,  7.35800e-05,  1.09500e-04, -1.39000e-05,  1.75700e-06],
                           [-9.92300e-01,  2.28200e-01,  4.62500e-02, -1.76700e-03, -1.12800e-03,  6.67500e-05,  1.99400e-05, -7.60400e-06],
                           [-6.38200e-01,  4.84700e-02,  3.59500e-02,  4.92500e-03, -7.30500e-04, -2.34000e-04,  2.32700e-05,  5.88900e-07],
                           [-3.92200e-01, -3.20900e-02,  1.57900e-02,  6.16300e-03,  5.38800e-04, -2.70900e-04, -4.47700e-05,  5.81300e-06],
                           [-2.24300e-01, -5.71500e-02,  1.10300e-03,  3.76300e-03,  1.09800e-03, -2.94600e-05, -7.06800e-05, -6.89600e-06],
                           [-1.11900e-01, -5.60500e-02, -6.40100e-03,  1.07900e-03,  7.97000e-04,  1.50200e-04, -2.19000e-05, -1.39700e-05],
                           [-4.02300e-02, -4.33500e-02, -9.32200e-03, -6.39100e-04,  2.72800e-04,  1.48800e-04,  3.04100e-05, -3.49200e-06],
                           [ 1.04000e-03, -2.64100e-02, -9.60800e-03, -1.57500e-03, -8.18400e-05,  7.65000e-05,  4.30800e-05,  9.55900e-06]])
#  gRO2(+M) <=> gQOOH[O](+M)                           1.000e+00 0.000     0.000
#      TCHEB/ 180.000   1500.000 /
#      PCHEB/ 0.010     98.692   /
#      CHEB/ 10 8/
#      CHEB/ -1.016e+01   1.943e+00    -8.475e-02   -2.747e-02   -5.273e-03  /
#      CHEB/ 2.120e-04    3.298e-04    1.122e-04    6.271e+00    3.107e-01   /
#      CHEB/ 6.463e-02    2.193e-02    1.710e-03    -3.235e-04   1.923e-04   /
#      CHEB/ 1.249e-04    -3.227e+00   5.220e-02    -4.554e-02   -1.172e-02  /
#      CHEB/ -5.671e-04   1.629e-03    8.044e-04    1.894e-04    -1.714e+00  /
#      CHEB/ 6.012e-02    -1.348e-02   -5.686e-03   -2.180e-03   -3.927e-04  /
#      CHEB/ 3.353e-05    5.443e-05    -9.369e-01   4.291e-02    9.677e-03   /
#      CHEB/ 3.554e-03    1.105e-03    3.037e-04    -6.310e-06   -9.032e-05  /
#      CHEB/ -5.575e-01   3.696e-03    1.218e-02    5.165e-03    1.815e-03   /
#      CHEB/ 4.539e-04    6.299e-05    -1.731e-05   -3.276e-01   -2.285e-02  /
#      CHEB/ 8.126e-03    3.210e-03    5.505e-04    -1.255e-04   -8.551e-05  /
#      CHEB/ -3.411e-06   -1.452e-01   -4.083e-02   -7.912e-04   8.971e-04   /
#      CHEB/ 9.362e-05    -1.681e-04   -1.235e-04   -3.803e-05   -5.737e-02  /
#      CHEB/ -3.430e-02   -3.392e-03   4.709e-04    -4.178e-05   -1.911e-04  /
#      CHEB/ -9.278e-05   -1.238e-05   -1.644e-02   -1.998e-02   -5.066e-03  /
#      CHEB/ -5.233e-04   -3.430e-04   -1.944e-04   -2.356e-05   3.360e-05   /

# Reaction 6
chebyshev_reaction('gQOOHa (+ M) <=> gQOOH[O] (+ M)',
                   Tmin=180.0, Tmax=1500.0,
                   Pmin=(0.01, 'atm'), Pmax=(98.692, 'atm'),
                   coeffs=[[-1.14100e+01,  1.13100e+00, -1.72300e-01,  1.79100e-02, -1.77100e-02, -5.39300e-03, -3.99700e-05,  5.79800e-04],
                           [ 3.05500e+00,  1.36200e+00,  3.67700e-02, -1.38500e-02,  2.89000e-02, -3.18900e-04, -1.79100e-03, -2.78000e-04],
                           [-3.44200e+00,  1.89200e-01,  1.21600e-02, -4.42100e-02,  2.63800e-03,  9.77800e-03,  9.12200e-04, -3.24900e-04],
                           [-1.99700e+00, -1.22200e-01,  4.05200e-02,  2.39200e-03, -1.16800e-02,  1.40900e-03,  1.64400e-03,  4.94800e-05],
                           [-1.05700e+00, -1.39400e-01,  6.90100e-03,  2.70900e-02, -3.77400e-04, -2.79500e-03,  1.64500e-04,  2.52400e-04],
                           [-5.57000e-01, -7.64700e-02, -2.24100e-02,  1.39900e-02,  7.30200e-03, -1.28500e-03, -9.39600e-04,  6.56700e-05],
                           [-2.83700e-01, -2.07200e-02, -1.97800e-02, -4.63200e-03,  4.56600e-03,  6.60900e-04, -7.45300e-04, -1.76500e-04],
                           [-9.62700e-02, -5.98400e-03, -9.92300e-03, -9.37900e-03, -2.33000e-04,  1.11700e-03, -7.91800e-07, -1.86600e-04],
                           [-3.07100e-02, -1.18800e-04,  5.44000e-03, -4.90400e-03, -2.62500e-03,  2.15800e-04,  3.36400e-04,  5.06900e-06],
                           [-1.73000e-02, -3.49600e-03,  1.02100e-02,  4.64100e-04, -2.19600e-03, -7.44900e-04,  1.37700e-04,  1.57600e-04]])

# Reaction 7
chebyshev_reaction('gQOOHg (+ M) <=> gQOOH[O] (+ M)',
                   Tmin=180.0, Tmax=1500.0,
                   Pmin=(0.01, 'atm'), Pmax=(98.692, 'atm'),
                   coeffs=[[-7.46100e+00,  1.36700e+00, -4.71200e-02,  2.07700e-02, -2.80200e-02, -1.13200e-02, -3.35200e-04,  1.72400e-03],
                           [-4.58800e+00,  1.17000e+00,  1.05500e-02,  1.57900e-02,  3.34800e-02,  2.61500e-03, -2.16400e-03, -1.21800e-03],
                           [-4.33100e+00, -2.88900e-01, -3.26700e-02, -2.98800e-02,  5.50300e-03,  1.07500e-02,  2.18900e-03, -4.36100e-04],
                           [-2.11200e+00, -3.63300e-01, -5.54800e-02,  6.22200e-03, -8.56800e-03, -4.14800e-04,  2.21600e-03,  4.36400e-04],
                           [-8.33800e-01, -4.10600e-02, -6.36800e-02,  4.13200e-03,  4.10700e-03, -2.56900e-03, -6.02000e-04,  4.27900e-04],
                           [-3.92100e-01,  1.18500e-01,  8.19200e-03, -8.88600e-03,  1.36200e-03,  1.06900e-03, -9.07300e-04, -2.46900e-04],
                           [-2.59400e-01,  5.20600e-02,  4.90800e-02,  6.51700e-03, -5.31000e-03, -4.20800e-04,  3.56400e-04, -2.40200e-04],
                           [-1.33400e-01, -5.86300e-02,  9.90400e-03,  1.74000e-02,  2.06800e-03, -2.49400e-03, -1.59500e-04,  2.32800e-04],
                           [-7.12100e-02, -5.92600e-02, -2.75400e-02,  3.60400e-03,  6.87300e-03,  2.15500e-04, -9.17500e-04,  4.74500e-05],
                           [-3.61000e-02, -1.94600e-02, -1.82300e-02, -1.23700e-02,  3.45100e-04,  2.44400e-03,  1.39500e-04, -2.71000e-04]])

# Reaction 8
chebyshev_reaction('gQOOHb (+ M) <=> gQOOH[O] (+ M)',
                   Tmin=180.0, Tmax=1500.0,
                   Pmin=(0.01, 'atm'), Pmax=(98.692, 'atm'),
                   coeffs=[[-1.20400e+01,  1.20200e+00,  1.96300e-02, -1.88800e-02, -1.73600e-02, -7.52800e-03, -1.15100e-03,  8.87300e-04],
                           [ 2.05200e+00,  1.51600e+00,  5.30400e-02, -7.84600e-04,  1.74200e-02,  4.63900e-03, -1.17200e-03, -1.02800e-03],
                           [-3.18800e+00,  1.69800e-01, -7.36400e-02, -4.11700e-02,  5.82600e-03,  1.01200e-02,  2.97700e-03, -2.56900e-04],
                           [-1.90500e+00, -1.40300e-01, -1.83500e-02, -3.67100e-03, -7.06200e-03, -1.66300e-05,  1.57800e-03,  4.43800e-04],
                           [-9.50800e-01, -8.38500e-02, -6.40800e-03,  1.73300e-02, -4.68800e-04, -3.03300e-03, -6.08500e-04,  2.10600e-04],
                           [-4.75200e-01,  2.40600e-03, -6.84000e-03,  8.39600e-03,  3.32200e-03, -7.62800e-04, -8.36600e-04, -1.64200e-04],
                           [-2.59000e-01,  2.56500e-02,  2.52600e-03, -2.47800e-04,  1.12500e-03,  2.94000e-04, -2.38500e-04, -1.83400e-04],
                           [-1.06700e-01, -5.87600e-03,  3.06100e-03, -8.32800e-05,  3.53400e-04,  2.81700e-04, -1.44900e-05, -8.13400e-05],
                           [-5.24900e-02, -1.98300e-02,  3.12700e-03,  1.12400e-03,  2.68700e-04,  2.03300e-04,  2.17600e-05, -3.09900e-05],
                           [-3.58600e-02, -2.09700e-02, -8.83700e-04, -4.32400e-05, -2.97800e-04,  8.41300e-05,  1.07400e-04,  4.69600e-05]])

# Reaction 9
chebyshev_reaction('O2 + gR (+ M) <=> gQOOH[O] (+ M)',
                   Tmin=180.0, Tmax=1500.0,
                   Pmin=(0.01, 'atm'), Pmax=(98.692, 'atm'),
                   coeffs=[[ 2.13200e+00,  1.29800e+00,  3.07500e-01,  4.93700e-02, -5.12400e-02, -3.75200e-02, -9.35100e-03,  3.03600e-03],
                           [-3.06800e+00,  1.43200e-01, -3.61400e-01, -3.09900e-02,  5.62900e-02,  3.74900e-02,  8.60500e-03, -3.48900e-03],
                           [-2.22900e+00,  2.59300e-01, -1.21300e-01, -4.78900e-02,  2.51700e-03,  7.60100e-03,  2.65400e-03, -1.50700e-04],
                           [-1.22500e+00,  2.35900e-01,  3.02900e-02, -2.58000e-02, -1.55200e-02, -3.73100e-03,  9.59500e-04,  1.34800e-03],
                           [-6.10700e-01,  1.03300e-01,  6.50100e-02,  1.09500e-02, -3.85100e-03, -3.51800e-03, -1.12600e-03,  1.69000e-05],
                           [-3.36600e-01,  1.44300e-02,  4.42800e-02,  1.80300e-02,  3.08000e-03, -9.59000e-04, -9.97400e-04, -4.24100e-04],
                           [-2.04500e-01, -2.18800e-02,  1.96700e-02,  9.95700e-03,  1.75400e-03, -4.07400e-04, -2.24900e-04,  4.32500e-05],
                           [-8.29800e-02, -5.53700e-02, -2.94300e-03,  4.96600e-03,  2.60500e-03,  4.63700e-04, -1.56300e-04, -1.21700e-04],
                           [-4.44300e-02, -4.41500e-02, -8.82100e-03,  1.14600e-03,  1.76700e-03,  7.44600e-04, -3.09500e-05, -1.98900e-04],
                           [-3.54500e-02, -1.66100e-02, -7.79100e-03, -3.48900e-03, -1.57100e-03, -7.62600e-05,  4.05300e-04,  2.72100e-04]])
#  gRO2(+M) <=> gQOOHa(+M)                             1.000e+00 0.000     0.000
#      TCHEB/ 180.000   1500.000 /
#      PCHEB/ 0.010     98.692   /
#      CHEB/ 10 8/
#      CHEB/ -4.145e+00   7.836e-01    -5.499e-02   1.626e-03    2.137e-03   /
#      CHEB/ 5.512e-05    -9.409e-05   2.291e-05    5.996e+00    1.202e+00   /
#      CHEB/ -2.743e-02   -6.469e-03   4.409e-03    -6.373e-05   -3.748e-05  /
#      CHEB/ 4.584e-06    -2.280e+00   4.914e-01    7.790e-02    -1.621e-03  /
#      CHEB/ -1.173e-03   6.477e-04    5.656e-05    -4.315e-05   -1.599e+00  /
#      CHEB/ -3.670e-02   8.363e-02    1.647e-02    -3.589e-03   -1.567e-05  /
#      CHEB/ 2.138e-04    -3.178e-05   -1.002e+00   -2.145e-01   2.055e-02   /
#      CHEB/ 2.109e-02    1.057e-03    -9.390e-04   -1.415e-05   5.966e-05   /
#      CHEB/ -5.621e-01   -1.728e-01   -3.072e-02   8.192e-03    4.928e-03   /
#      CHEB/ -1.482e-04   -3.464e-04   3.507e-05    -2.657e-01   -8.380e-02  /
#      CHEB/ -3.776e-02   -6.068e-03   3.060e-03    1.133e-03    -1.500e-04  /
#      CHEB/ -8.042e-05   -1.116e-01   -2.658e-02   -1.887e-02   -9.966e-03  /
#      CHEB/ -1.220e-03   1.019e-03    3.217e-04    -6.083e-05   -7.365e-03  /
#      CHEB/ -4.017e-03   -1.452e-03   -5.037e-03   -3.093e-03   -2.140e-04  /
#      CHEB/ 4.110e-04    8.167e-05    -1.257e-02   1.934e-03    3.200e-03   /
#      CHEB/ 1.440e-03    -1.905e-03   -9.864e-04   2.654e-05    1.344e-04   /
#  gQOOH[O](+M) <=> gQOOHa(+M)                         1.000e+00 0.000     0.000
#      TCHEB/ 180.000   1500.000 /
#      PCHEB/ 0.010     98.692   /
#      CHEB/ 10 8/
#      CHEB/ -6.509e-01   1.131e+00    -1.723e-01   1.791e-02    -1.771e-02  /
#      CHEB/ -5.393e-03   -3.997e-05   5.798e-04    -4.780e+00   1.362e+00   /
#      CHEB/ 3.677e-02    -1.385e-02   2.890e-02    -3.189e-04   -1.791e-03  /
#      CHEB/ -2.780e-04   -3.453e+00   1.892e-01    1.216e-02    -4.421e-02  /
#      CHEB/ 2.638e-03    9.778e-03    9.122e-04    -3.249e-04   -2.047e+00  /
#      CHEB/ -1.222e-01   4.052e-02    2.392e-03    -1.168e-02   1.409e-03   /
#      CHEB/ 1.644e-03    4.948e-05    -1.082e+00   -1.394e-01   6.901e-03   /
#      CHEB/ 2.709e-02    -3.774e-04   -2.795e-03   1.645e-04    2.524e-04   /
#      CHEB/ -5.663e-01   -7.647e-02   -2.241e-02   1.399e-02    7.302e-03   /
#      CHEB/ -1.285e-03   -9.396e-04   6.567e-05    -2.870e-01   -2.072e-02  /
#      CHEB/ -1.978e-02   -4.632e-03   4.566e-03    6.609e-04    -7.453e-04  /
#      CHEB/ -1.765e-04   -9.756e-02   -5.984e-03   -9.923e-03   -9.379e-03  /
#      CHEB/ -2.330e-04   1.117e-03    -7.918e-07   -1.866e-04   -3.117e-02  /
#      CHEB/ -1.188e-04   5.440e-03    -4.904e-03   -2.625e-03   2.158e-04   /