units(length='cm', time='s', quantity='mol', act_energy='kcal/mol')

ideal_gas(name='gas',
          elements="H D T C Ci O Oi N Ne Ar He Si S F Cl Br I X",
          species="""OH             bQOOH[O]       acetone
                     H2O            balkoxyketone  ibutenol
                     trisub_epoxy   bQOOHg         CH2O
                     galkene        O2             bR
                     bQOOHa         bRO2           disub_epoxy
                     HO2""",
          reactions='all',
          initial_state=state(temperature=300.0, pressure=OneAtm))

#-------------------------------------------------------------------------------
# Element data
#-------------------------------------------------------------------------------

element(symbol='Ci', atomic_mass=13.003)
element(symbol='D', atomic_mass=2.014)
element(symbol='Oi', atomic_mass=18.0)
element(symbol='T', atomic_mass=3.016)
element(symbol='X', atomic_mass=195.083)
#-------------------------------------------------------------------------------
# Species data
#-------------------------------------------------------------------------------

species(name='OH',
        atoms='H:1 O:1',
        thermo=(NASA([10.00, 984.14],
                     [ 3.49686242E+00,  1.83973160E-04, -9.97634499E-07,
                       1.56942783E-09, -6.10128175E-13,  3.41673934E+03,
                       1.48093120E+00]),
                NASA([984.14, 3000.00],
                     [ 3.45221464E+00, -2.95124034E-04,  7.39418622E-07,
                      -2.89309866E-10,  3.53041498E-14,  3.45751599E+03,
                       1.85813897E+00])))

species(name='bQOOH[O]',
        atoms='C:4 H:9 O:3',
        thermo=(NASA([10.00, 338.69],
                     [ 3.60915854E+00,  3.39069566E-02,  2.22227265E-04,
                      -8.23527342E-07,  8.56246333E-10, -2.45301921E+04,
                       1.23284605E+01]),
                NASA([338.69, 3000.00],
                     [ 5.03198881E+00,  5.46235886E-02, -3.56935806E-05,
                       1.12371751E-08, -1.35390171E-12, -2.48417749E+04,
                       3.82760723E+00])))

species(name='acetone',
        atoms='C:3 H:6 O:1',
        thermo=(NASA([10.00, 414.35],
                     [ 3.73496166E+00,  3.05743218E-02, -1.26253585E-04,
                       3.66080978E-07, -3.31430437E-10, -2.71124958E+04,
                       8.24936012E+00]),
                NASA([414.35, 3000.00],
                     [ 1.70010292E-01,  3.28431468E-02, -1.80960132E-05,
                       4.82960690E-09, -5.02388538E-13, -2.65411127E+04,
                       2.56372653E+01])))

species(name='H2O',
        atoms='H:2 O:1',
        thermo=(NASA([10.00, 773.84],
                     [ 4.00473541E+00, -2.39729134E-04,  8.11862955E-07,
                       1.47891862E-09, -1.19783539E-12, -3.03533807E+04,
                      -9.96254147E-02]),
                NASA([773.84, 3000.00],
                     [ 3.52133374E+00,  1.05377009E-03,  6.40722099E-07,
                      -3.86240235E-10,  5.49243294E-14, -3.02424794E+04,
                       2.34173094E+00])))

species(name='balkoxyketone',
        atoms='C:4 H:7 O:2',
        thermo=(NASA([10.00, 269.93],
                     [ 3.81931151E+00,  1.68519318E-02,  2.42742224E-04,
                      -9.64821161E-07,  1.18509335E-09, -2.08109129E+04,
                       1.20521854E+01]),
                NASA([269.93, 3000.00],
                     [ 3.57555944E+00,  4.28868089E-02, -2.65390705E-05,
                       7.99659117E-09, -9.32983470E-13, -2.08794410E+04,
                       1.13957990E+01])))

species(name='ibutenol',
        atoms='C:4 H:8 O:1',
        thermo=(NASA([10.00, 135.97],
                     [ 3.95714996E+00,  5.72646980E-03,  4.63611760E-04,
                      -3.04137514E-06,  6.85019471E-09, -2.35215380E+04,
                       8.21931848E+00]),
                NASA([135.97, 3000.00],
                     [ 3.32467612E+00,  3.69033556E-02, -1.89960416E-05,
                       4.73417677E-09, -4.59705291E-13, -2.35159594E+04,
                       9.58133237E+00])))

species(name='trisub_epoxy',
        atoms='C:4 H:8 O:2',
        thermo=(NASA([10.00, 209.19],
                     [ 3.75295042E+00,  2.37546930E-02,  1.26610110E-04,
                      -4.78364365E-07,  5.79468168E-10, -4.07159193E+04,
                       1.12739684E+01]),
                NASA([209.19, 3000.00],
                     [ 2.64185254E+00,  4.50006531E-02, -2.57361066E-05,
                       7.15266054E-09, -7.72980731E-13, -4.06694337E+04,
                       1.48960343E+01])))

species(name='bQOOHg',
        atoms='C:4 H:9 O:3',
        thermo=(NASA([10.00, 441.09],
                     [ 3.56595280E+00,  3.36073467E-02,  2.03462772E-04,
                      -5.98977617E-07,  4.83271168E-10, -2.43894950E+04,
                       1.33537891E+01]),
                NASA([441.09, 3000.00],
                     [ 6.09031192E+00,  5.80517622E-02, -4.06392697E-05,
                       1.32574026E-08, -1.62501077E-12, -2.50726805E+04,
                      -1.97849715E+00])))

species(name='CH2O',
        atoms='C:1 H:2 O:1',
        thermo=(NASA([10.00, 601.31],
                     [ 4.03190845E+00, -1.93233367E-03,  8.89743345E-06,
                       2.98105926E-09, -7.90813886E-12, -1.42276270E+04,
                       3.47574660E+00]),
                NASA([601.31, 3000.00],
                     [ 1.40134195E+00,  9.48858016E-03, -4.43088317E-06,
                       9.48452194E-10, -7.43790219E-14, -1.38013869E+04,
                       1.57423780E+01])))

species(name='galkene',
        atoms='C:4 H:8 O:1',
        thermo=(NASA([10.00, 383.47],
                     [ 3.84035604E+00,  1.20378740E-02,  1.87486319E-04,
                      -5.44759148E-07,  4.80711015E-10, -2.16829685E+04,
                       1.02570291E+01]),
                NASA([383.47, 3000.00],
                     [ 4.00413385E+00,  3.79025144E-02, -2.15435710E-05,
                       6.15213311E-09, -6.97446345E-13, -2.18982578E+04,
                       6.98052628E+00])))

species(name='O2',
        atoms='O:2',
        thermo=(NASA([10.00, 605.96],
                     [ 3.50743498E+00, -4.43860349E-04,  1.45938058E-06,
                       1.61509333E-09, -2.32050052E-12, -9.24756224E+02,
                       4.72183634E+00]),
                NASA([605.96, 3000.00],
                     [ 2.87462882E+00,  2.17840991E-03, -1.18262921E-06,
                       2.86910493E-10, -2.53297146E-14, -8.19517838E+02,
                       7.69331810E+00])))

species(name='bR',
        atoms='C:4 H:9 O:1',
        thermo=(NASA([10.00, 483.43],
                     [ 3.38164846E+00,  5.97142637E-02, -1.58320095E-04,
                       3.04908893E-07, -2.13091806E-10, -1.30321818E+04,
                       1.09226843E+01]),
                NASA([483.43, 3000.00],
                     [ 2.33428824E+00,  4.22094427E-02, -2.28029290E-05,
                       6.04614564E-09, -6.30240159E-13, -1.26250998E+04,
                       1.83772893E+01])))

species(name='bQOOHa',
        atoms='C:4 H:9 O:3',
        thermo=(NASA([10.00, 390.53],
                     [ 3.54969236E+00,  3.76592474E-02,  1.76622653E-04,
                      -5.98063750E-07,  5.45069236E-10, -2.52478299E+04,
                       1.31518761E+01]),
                NASA([390.53, 3000.00],
                     [ 5.33564209E+00,  5.64935715E-02, -3.83214298E-05,
                       1.22990604E-08, -1.49549987E-12, -2.56704398E+04,
                       2.59015836E+00])))

species(name='bRO2',
        atoms='C:4 H:9 O:3',
        thermo=(NASA([10.00, 461.39],
                     [ 3.53964713E+00,  3.88723795E-02,  9.57420148E-05,
                      -2.80380499E-07,  2.09647462E-10, -3.28885641E+04,
                       1.18803618E+01]),
                NASA([461.39, 3000.00],
                     [ 3.47201723E+00,  6.00510247E-02, -4.00567321E-05,
                       1.25663813E-08, -1.49496682E-12, -3.31015109E+04,
                       9.77903975E+00])))

species(name='disub_epoxy',
        atoms='C:4 H:8 O:2',
        thermo=(NASA([10.00, 549.41],
                     [ 3.89863211E+00,  5.97532637E-03,  1.66685676E-04,
                      -3.10743768E-07,  1.78330192E-10, -3.69157658E+04,
                       1.13847308E+01]),
                NASA([549.41, 3000.00],
                     [-6.40277648E-01,  6.05960003E-02, -4.13427220E-05,
                       1.31555461E-08, -1.57685017E-12, -3.67426489E+04,
                       2.76005436E+01])))

species(name='HO2',
        atoms='H:1 O:2',
        thermo=(NASA([10.00, 891.11],
                     [ 4.02887004E+00, -1.75769289E-03,  1.08726004E-05,
                      -1.13812972E-08,  3.90113097E-12,  4.95165001E+02,
                       4.69302008E+00]),
                NASA([891.11, 3000.00],
                     [ 3.06571044E+00,  4.28505005E-03, -2.19325920E-06,
                       5.58882699E-10, -5.61246669E-14,  5.98557610E+02,
                       8.84564156E+00])))

#-------------------------------------------------------------------------------
# Reaction data
#-------------------------------------------------------------------------------

# Reaction 1
chebyshev_reaction('bQOOHg (+ M) <=> bRO2 (+ M)',
                   Tmin=180.0, Tmax=1500.0,
                   Pmin=(0.01, 'atm'), Pmax=(98.692, 'atm'),
                   coeffs=[[ 9.64600e-01,  6.04000e-01, -2.39800e-02,  1.62700e-02,  7.51000e-04, -1.10600e-03,  1.33500e-04,  3.11600e-06],
                           [ 6.59700e-01,  9.93400e-01, -1.44000e-02,  2.53500e-02,  1.96600e-03, -1.72100e-03,  1.53800e-04,  2.21400e-05],
                           [-2.75600e+00,  5.01100e-01,  4.37600e-02,  1.37400e-02,  2.12800e-03, -5.50800e-04, -3.82400e-05,  5.04400e-05],
                           [-2.03200e+00,  3.58900e-02,  5.75100e-02,  1.04600e-02,  1.51600e-03,  3.60600e-04, -2.72400e-05,  5.83100e-05],
                           [-1.29800e+00, -2.02200e-01,  1.45000e-02,  1.22800e-02,  1.85000e-03,  4.46000e-04,  1.70600e-04,  5.43800e-05],
                           [-6.02200e-01, -2.13700e-01, -4.03500e-02,  8.44800e-03,  3.47000e-03,  2.91500e-04,  2.56500e-04,  4.81200e-05],
                           [-2.47300e-01, -1.13200e-01, -6.28200e-02, -2.72300e-03,  4.06000e-03,  6.28600e-04,  1.33100e-04,  9.30300e-06],
                           [-2.55600e-02, -9.39400e-03, -4.62200e-02, -1.29100e-02,  1.90300e-03,  1.13300e-03,  2.96300e-05, -5.78300e-05],
                           [ 3.10500e-02,  4.77000e-02, -1.25300e-02, -1.45200e-02, -1.80900e-03,  9.27500e-04,  1.02700e-04, -6.63500e-05],
                           [ 6.41400e-03,  5.64300e-02,  1.43200e-02, -7.76000e-03, -4.33300e-03, -1.73700e-04,  2.16200e-04,  4.71000e-05]])

# Reaction 2
chebyshev_reaction('bQOOHa (+ M) <=> bRO2 (+ M)',
                   Tmin=180.0, Tmax=1500.0,
                   Pmin=(0.01, 'atm'), Pmax=(98.692, 'atm'),
                   coeffs=[[-2.90400e+00,  2.61800e+00,  4.34500e-02, -4.87900e-02, -9.01200e-03,  5.91900e-03,  1.57200e-03, -1.38000e-03],
                           [-3.13300e+00, -2.28700e-01,  1.42400e-01,  1.25100e-01,  1.68800e-02, -1.17300e-02, -3.91400e-03,  1.38200e-03],
                           [-2.39400e+00, -7.83800e-02, -1.43900e-01, -4.42100e-02,  4.27400e-03,  6.91700e-03,  1.24200e-03, -3.66900e-04],
                           [-1.14200e+00,  1.98100e-02, -5.52000e-02, -3.11500e-02, -6.49900e-03,  1.32800e-03,  1.08400e-03,  7.35800e-05],
                           [-7.62700e-01,  4.67000e-02,  7.79000e-03, -4.23600e-03, -3.03900e-03,  2.34600e-04,  8.50500e-04,  1.43000e-04],
                           [-4.71700e-01,  5.54200e-03,  7.17100e-03,  2.79400e-03, -8.50900e-04, -1.02500e-03, -2.29900e-04,  1.99100e-04],
                           [-2.40100e-01, -9.70300e-03,  6.32400e-03,  1.03500e-03, -1.26700e-03, -1.31700e-03, -4.52800e-04,  2.38900e-05],
                           [-8.85900e-02, -1.11200e-02, -9.09500e-04,  1.17100e-03,  8.45200e-05, -3.43100e-04, -2.25600e-04, -4.96600e-05],
                           [-3.58400e-02, -2.01800e-02, -7.39200e-04, -2.34400e-04,  5.26600e-04,  3.60800e-04,  7.36600e-05, -2.33600e-05],
                           [-1.18300e-02,  4.07900e-04, -5.01800e-03,  3.81700e-04,  2.67500e-04,  8.44200e-05, -2.75800e-05, -4.81300e-05]])

# Reaction 3
chebyshev_reaction('bQOOH[O] (+ M) <=> bRO2 (+ M)',
                   Tmin=180.0, Tmax=1500.0,
                   Pmin=(0.01, 'atm'), Pmax=(98.692, 'atm'),
                   coeffs=[[ 5.29300e+00,  1.21200e+00, -1.63500e-01,  3.51800e-04,  7.16100e-03,  6.78000e-04, -5.02100e-04, -3.32200e-05],
                           [-4.10600e+00,  8.62000e-01,  6.37700e-02, -2.86600e-02, -9.25600e-04,  3.82600e-03,  4.93800e-04, -4.93200e-04],
                           [-3.30900e+00, -1.52500e-01,  1.80500e-02,  2.17800e-02,  1.72700e-03, -1.32300e-03, -1.04800e-04,  1.84100e-04],
                           [-1.63600e+00, -2.34300e-01, -8.54000e-02,  1.11300e-03,  1.04700e-02,  1.45200e-03, -1.22600e-03, -3.02700e-04],
                           [-7.57700e-01, -4.67000e-02, -5.71400e-02, -1.94200e-02,  6.20900e-04,  2.63700e-03,  3.16900e-04, -3.57500e-04],
                           [-3.81100e-01,  3.05000e-02,  5.51200e-03, -6.82500e-03, -4.86400e-03, -9.81800e-04,  4.21100e-04,  2.48400e-04],
                           [-2.26200e-01,  8.05800e-03,  1.51000e-02,  7.76300e-03,  3.86100e-04, -1.70800e-03, -7.73400e-04,  7.98800e-05],
                           [-1.20500e-01, -2.41800e-02, -2.75600e-03,  4.00800e-03,  3.54700e-03,  7.47400e-04, -5.34900e-04, -3.51500e-04],
                           [-4.62000e-02, -1.75500e-02, -1.03800e-02, -4.57000e-03,  2.64500e-04,  1.43500e-03,  5.14300e-04, -1.38000e-04],
                           [-1.20700e-03,  5.91300e-03, -2.61500e-03, -4.99300e-03, -2.50100e-03, -1.49900e-04,  4.93100e-04,  2.31600e-04]])

# Reaction 4
chebyshev_reaction('O2 + bR (+ M) <=> bRO2 (+ M)',
                   Tmin=180.0, Tmax=1500.0,
                   Pmin=(0.01, 'atm'), Pmax=(98.692, 'atm'),
                   coeffs=[[ 1.42000e+01,  7.46200e-01, -6.78500e-02,  5.73200e-03, -2.31800e-04, -8.36200e-05, -4.79400e-06,  9.63700e-06],
                           [-2.77600e+00,  9.64600e-01, -4.04800e-04, -9.88700e-03,  4.70200e-04,  2.63500e-04, -4.84000e-05, -7.10800e-06],
                           [-1.77700e+00,  3.62100e-01,  5.17200e-02, -9.13300e-04, -1.37400e-03, -1.80600e-05,  5.69400e-05,  4.14400e-07],
                           [-1.07900e+00,  6.10900e-02,  2.74600e-02,  5.17400e-03,  9.32800e-05, -2.20700e-04, -2.08300e-05,  7.99000e-06],
                           [-6.11000e-01, -3.07300e-02,  3.41900e-03,  2.61100e-03,  7.76800e-04,  4.49900e-05, -2.61600e-05, -8.57800e-06],
                           [-3.26900e-01, -4.34600e-02, -4.35700e-03, -3.19900e-06,  2.96400e-04,  1.02100e-04,  2.09100e-05, -2.95500e-06],
                           [-1.60700e-01, -3.62400e-02, -4.85700e-03, -5.74700e-04, -3.95400e-05,  1.01500e-05,  1.69300e-05,  4.69800e-06],
                           [-6.69100e-02, -2.44100e-02, -4.28200e-03, -4.85900e-04, -4.90200e-05, -2.03300e-05, -2.38700e-06,  1.51100e-06],
                           [-1.71900e-02, -1.25300e-02, -3.38700e-03, -4.82700e-04, -2.78000e-05, -2.16300e-06, -4.03500e-06, -1.55100e-06],
                           [ 5.67200e-03, -2.66000e-03, -2.13300e-03, -4.67600e-04, -5.39000e-05,  2.80600e-06,  4.06800e-07, -5.34700e-07]])
#  bRO2(+M) <=> bQOOHg(+M)                             1.000e+00 0.000     0.000
#      TCHEB/ 180.000   1500.000 /
#      PCHEB/ 0.010     98.692   /
#      CHEB/ 10 8/
#      CHEB/ -9.566e+00   6.040e-01    -2.398e-02   1.627e-02    7.510e-04   /
#      CHEB/ -1.106e-03   1.335e-04    3.116e-06    1.008e+01    9.934e-01   /
#      CHEB/ -1.440e-02   2.535e-02    1.966e-03    -1.721e-03   1.538e-04   /
#      CHEB/ 2.214e-05    -2.610e+00   5.011e-01    4.376e-02    1.374e-02   /
#      CHEB/ 2.128e-03    -5.508e-04   -3.824e-05   5.044e-05    -1.995e+00  /
#      CHEB/ 3.589e-02    5.751e-02    1.046e-02    1.516e-03    3.606e-04   /
#      CHEB/ -2.724e-05   5.831e-05    -1.293e+00   -2.022e-01   1.450e-02   /
#      CHEB/ 1.228e-02    1.850e-03    4.460e-04    1.706e-04    5.438e-05   /
#      CHEB/ -6.023e-01   -2.137e-01   -4.035e-02   8.448e-03    3.470e-03   /
#      CHEB/ 2.915e-04    2.565e-04    4.812e-05    -2.478e-01   -1.132e-01  /
#      CHEB/ -6.282e-02   -2.723e-03   4.060e-03    6.286e-04    1.331e-04   /
#      CHEB/ 9.303e-06    -2.601e-02   -9.394e-03   -4.622e-02   -1.291e-02  /
#      CHEB/ 1.903e-03    1.133e-03    2.963e-05    -5.783e-05   3.072e-02   /
#      CHEB/ 4.770e-02    -1.253e-02   -1.452e-02   -1.809e-03   9.275e-04   /
#      CHEB/ 1.027e-04    -6.635e-05   6.228e-03    5.643e-02    1.432e-02   /
#      CHEB/ -7.760e-03   -4.333e-03   -1.737e-04   2.162e-04    4.710e-05   /

# Reaction 5
chebyshev_reaction('bQOOHa (+ M) <=> bQOOHg (+ M)',
                   Tmin=180.0, Tmax=1500.0,
                   Pmin=(0.01, 'atm'), Pmax=(98.692, 'atm'),
                   coeffs=[[-1.44800e+01,  2.03000e+00,  3.85700e-01,  3.36200e-02, -4.26200e-02, -1.93700e-02, -4.95900e-04,  2.37800e-03],
                           [ 1.45900e+00, -7.91300e-02, -2.27500e-01,  1.32300e-01,  7.92400e-02,  1.60000e-02, -4.00000e-03, -4.56000e-03],
                           [-2.91800e+00,  2.56100e-01, -2.04400e-01, -8.47200e-02, -9.19500e-03,  7.30700e-03,  5.45500e-03,  1.85400e-03],
                           [-2.00200e+00,  1.25800e-01,  3.31400e-02, -2.61800e-02, -1.40800e-02, -2.83000e-03,  6.14600e-04,  6.57800e-04],
                           [-1.23600e+00, -8.62100e-02,  5.82100e-02,  2.29800e-02,  4.33700e-04, -2.10900e-03, -8.43800e-04, -1.14900e-04],
                           [-5.80500e-01, -1.68600e-01, -2.99000e-02,  1.58300e-02,  4.97600e-03,  1.42200e-04,  8.54200e-05,  7.18800e-05],
                           [-2.00600e-01, -9.41200e-02, -5.88700e-02,  9.06900e-05,  4.88500e-03,  3.09700e-04, -1.13900e-04,  2.08300e-05],
                           [-8.67400e-03, -4.00700e-05, -4.88500e-02, -1.24900e-02,  3.20100e-03,  1.75700e-03,  1.08000e-04, -1.17900e-04],
                           [ 2.90700e-02,  3.94100e-02, -1.24800e-02, -1.53800e-02, -1.03500e-03,  1.43300e-03,  1.82400e-04, -7.76500e-05],
                           [-1.37600e-02,  7.47100e-02,  1.57700e-02, -7.75500e-03, -5.34900e-03, -6.88600e-04,  1.53000e-04,  1.01000e-04]])

# Reaction 6
chebyshev_reaction('bQOOH[O] (+ M) <=> bQOOHg (+ M)',
                   Tmin=180.0, Tmax=1500.0,
                   Pmin=(0.01, 'atm'), Pmax=(98.692, 'atm'),
                   coeffs=[[-5.88000e+00,  8.98500e-01, -3.29100e-01, -6.09100e-02,  3.15400e-02,  6.10600e-03, -4.10000e-03,  2.08000e-04],
                           [-1.73800e-01,  1.22900e+00,  3.61700e-01,  3.18600e-02, -5.70200e-02,  1.52600e-03,  1.15500e-02, -1.61100e-03],
                           [-3.70300e+00, -3.32200e-02,  1.22900e-02,  1.04700e-01,  2.39000e-02, -1.47400e-02, -5.60200e-03,  2.68900e-03],
                           [-2.40200e+00, -3.08700e-01, -1.07500e-01,  2.24900e-02,  3.17300e-02,  3.69700e-03, -5.17200e-03, -1.29200e-03],
                           [-1.26600e+00, -1.54400e-01, -5.80000e-02, -3.08700e-02,  2.41400e-03,  9.08500e-03,  1.88300e-03, -1.46300e-03],
                           [-5.13400e-01, -6.36100e-02, -1.35900e-02, -9.68800e-03, -1.03300e-02, -3.14100e-05,  3.43100e-03,  6.35100e-04],
                           [-2.03500e-01, -1.93900e-02, -2.23400e-02,  4.38400e-03,  5.66400e-04, -2.56800e-03, -3.75400e-04,  7.25500e-04],
                           [-3.49100e-02, -9.29000e-03, -3.35700e-02, -6.13900e-04,  5.47400e-03, -3.37000e-05, -1.02000e-03, -6.76300e-05],
                           [ 1.99300e-02,  2.72500e-02, -1.73700e-02, -1.30800e-02,  4.20900e-04,  1.80900e-03,  1.02700e-04, -2.60400e-04],
                           [ 9.54800e-03,  6.39000e-02,  8.70400e-03, -1.23000e-02, -4.72700e-03,  5.40400e-04,  3.01300e-04,  1.50400e-05]])

# Reaction 7
chebyshev_reaction('O2 + bR (+ M) <=> bQOOHg (+ M)',
                   Tmin=180.0, Tmax=1500.0,
                   Pmin=(0.01, 'atm'), Pmax=(98.692, 'atm'),
                   coeffs=[[ 7.84600e+00, -8.79100e-02, -2.74200e-01,  5.01900e-02, -5.63600e-03, -1.98600e-03,  1.37100e-03, -4.43900e-04],
                           [-2.35300e+00,  1.97300e+00,  8.30300e-02, -6.63900e-02,  1.48800e-02, -2.49600e-04, -1.63900e-03,  6.74900e-04],
                           [-2.09100e+00,  5.71700e-01,  1.78400e-01, -2.09300e-02, -6.24100e-03,  4.03000e-03, -7.58200e-04, -2.50500e-04],
                           [-1.36300e+00, -3.46700e-02,  9.38800e-02,  1.23800e-02, -8.09400e-03,  9.67500e-04,  8.88600e-04, -2.92900e-04],
                           [-7.03600e-01, -1.87600e-01,  1.42900e-02,  1.94500e-02, -2.93800e-03, -1.60400e-03,  8.70000e-04,  1.61400e-04],
                           [-2.77800e-01, -1.62600e-01, -3.13000e-02,  1.34300e-02,  2.60700e-03, -1.74000e-03,  3.35300e-05,  2.80900e-04],
                           [-5.47000e-02, -8.21400e-02, -4.45300e-02,  1.23500e-03,  4.89500e-03, -1.55200e-04, -5.17200e-04,  3.84500e-05],
                           [ 2.90500e-02, -2.21900e-04, -3.28200e-02, -8.71500e-03,  3.10800e-03,  1.18100e-03, -4.17800e-04, -2.20300e-04],
                           [ 3.95700e-02,  4.54800e-02, -7.21300e-03, -1.12000e-02, -6.34100e-04,  1.27800e-03, -3.97700e-05, -2.51500e-04],
                           [ 1.97400e-02,  5.07300e-02,  1.42700e-02, -5.98500e-03, -3.40500e-03,  2.23900e-04,  2.70700e-04, -7.02700e-05]])
#  bRO2(+M) <=> bQOOHa(+M)                             1.000e+00 0.000     0.000
#      TCHEB/ 180.000   1500.000 /
#      PCHEB/ 0.010     98.692   /
#      CHEB/ 10 8/
#      CHEB/ -1.238e+01   2.618e+00    4.345e-02    -4.879e-02   -9.012e-03  /
#      CHEB/ 5.919e-03    1.572e-03    -1.380e-03   5.224e+00    -2.287e-01  /
#      CHEB/ 1.424e-01    1.251e-01    1.688e-02    -1.173e-02   -3.914e-03  /
#      CHEB/ 1.382e-03    -2.339e+00   -7.838e-02   -1.439e-01   -4.421e-02  /
#      CHEB/ 4.274e-03    6.917e-03    1.242e-03    -3.669e-04   -1.140e+00  /
#      CHEB/ 1.981e-02    -5.520e-02   -3.115e-02   -6.499e-03   1.328e-03   /
#      CHEB/ 1.084e-03    7.358e-05    -7.675e-01   4.670e-02    7.790e-03   /
#      CHEB/ -4.236e-03   -3.039e-03   2.346e-04    8.505e-04    1.430e-04   /
#      CHEB/ -4.745e-01   5.542e-03    7.171e-03    2.794e-03    -8.509e-04  /
#      CHEB/ -1.025e-03   -2.299e-04   1.991e-04    -2.415e-01   -9.703e-03  /
#      CHEB/ 6.324e-03    1.035e-03    -1.267e-03   -1.317e-03   -4.528e-04  /
#      CHEB/ 2.389e-05    -8.931e-02   -1.112e-02   -9.095e-04   1.171e-03   /
#      CHEB/ 8.452e-05    -3.431e-04   -2.256e-04   -4.966e-05   -3.619e-02  /
#      CHEB/ -2.018e-02   -7.392e-04   -2.344e-04   5.266e-04    3.608e-04   /
#      CHEB/ 7.366e-05    -2.336e-05   -1.195e-02   4.079e-04    -5.018e-03  /
#      CHEB/ 3.817e-04    2.675e-04    8.442e-05    -2.758e-05   -4.813e-05  /
#  bQOOHg(+M) <=> bQOOHa(+M)                           1.000e+00 0.000     0.000
#      TCHEB/ 180.000   1500.000 /
#      PCHEB/ 0.010     98.692   /
#      CHEB/ 10 8/
#      CHEB/ -1.342e+01   2.030e+00    3.857e-01    3.362e-02    -4.262e-02  /
#      CHEB/ -1.937e-02   -4.959e-04   2.378e-03    3.999e-01    -7.913e-02  /
#      CHEB/ -2.275e-01   1.323e-01    7.924e-02    1.600e-02    -4.000e-03  /
#      CHEB/ -4.560e-03   -3.009e+00   2.561e-01    -2.044e-01   -8.472e-02  /
#      CHEB/ -9.195e-03   7.307e-03    5.455e-03    1.854e-03    -2.038e+00  /
#      CHEB/ 1.258e-01    3.314e-02    -2.618e-02   -1.408e-02   -2.830e-03  /
#      CHEB/ 6.146e-04    6.578e-04    -1.247e+00   -8.621e-02   5.821e-02   /
#      CHEB/ 2.298e-02    4.337e-04    -2.109e-03   -8.438e-04   -1.149e-04  /
#      CHEB/ -5.831e-01   -1.686e-01   -2.990e-02   1.583e-02    4.976e-03   /
#      CHEB/ 1.422e-04    8.542e-05    7.188e-05    -2.014e-01   -9.412e-02  /
#      CHEB/ -5.887e-02   9.069e-05    4.885e-03    3.097e-04    -1.139e-04  /
#      CHEB/ 2.083e-05    -8.945e-03   -4.007e-05   -4.885e-02   -1.249e-02  /
#      CHEB/ 3.201e-03    1.757e-03    1.080e-04    -1.179e-04   2.905e-02   /
#      CHEB/ 3.941e-02    -1.248e-02   -1.538e-02   -1.035e-03   1.433e-03   /
#      CHEB/ 1.824e-04    -7.765e-05   -1.370e-02   7.471e-02    1.577e-02   /
#      CHEB/ -7.755e-03   -5.349e-03   -6.886e-04   1.530e-04    1.010e-04   /

# Reaction 8
chebyshev_reaction('bQOOH[O] (+ M) <=> bQOOHa (+ M)',
                   Tmin=180.0, Tmax=1500.0,
                   Pmin=(0.01, 'atm'), Pmax=(98.692, 'atm'),
                   coeffs=[[-9.74400e+00,  2.47600e+00,  5.89100e-02, -2.25300e-02, -1.82400e-02, -5.15000e-03, -1.04100e-04,  8.75500e-05],
                           [-4.02600e+00,  2.31300e-01,  7.52500e-02,  7.45500e-02,  4.05900e-02,  6.99200e-03, -3.46400e-03, -1.75100e-03],
                           [-3.43900e+00, -5.70700e-01, -2.01400e-01, -4.60000e-02,  3.27400e-04,  9.84200e-03,  4.54900e-03,  2.76700e-04],
                           [-1.60700e+00, -2.22700e-01, -1.15500e-01, -2.03100e-02, -4.08000e-03, -2.19000e-03, -3.70200e-05,  6.09300e-04],
                           [-7.75300e-01,  6.65400e-02, -3.26100e-02, -1.44000e-02, -1.98800e-03, -6.24500e-05, -8.79100e-05, -1.45000e-04],
                           [-4.28700e-01,  1.08200e-01,  1.67300e-02, -6.03800e-03, -4.89600e-03, -1.63800e-03,  7.02100e-05,  3.41100e-04],
                           [-2.18500e-01,  3.50900e-02,  2.25000e-02,  6.51700e-03,  5.10500e-04, -1.60900e-03, -9.93900e-04, -5.46600e-05],
                           [-1.00200e-01, -1.59000e-02,  2.00700e-03,  5.57600e-03,  3.97400e-03,  1.08300e-03, -5.33500e-04, -4.45500e-04],
                           [-3.52000e-02, -3.42300e-02, -7.01600e-03, -3.18200e-03,  7.49900e-04,  1.67500e-03,  6.17100e-04, -1.24700e-04],
                           [-1.97000e-02,  8.94800e-03, -4.88400e-03, -3.77200e-03, -2.93100e-03, -4.48500e-04,  5.32200e-04,  2.83100e-04]])

# Reaction 9
chebyshev_reaction('O2 + bR (+ M) <=> bQOOHa (+ M)',
                   Tmin=180.0, Tmax=1500.0,
                   Pmin=(0.01, 'atm'), Pmax=(98.692, 'atm'),
                   coeffs=[[ 1.81500e-01,  2.56100e+00,  6.33000e-01,  1.43500e-01, -1.54800e-02, -2.46000e-02, -1.02900e-02, -2.16200e-03],
                           [-3.31400e+00, -7.67200e-01, -5.49000e-01, -5.65600e-02,  4.54100e-02,  3.01000e-02,  1.05700e-02,  1.89200e-03],
                           [-1.98000e+00,  1.26100e-01, -1.40800e-01, -7.74300e-02, -1.32700e-02,  1.30100e-03,  4.83400e-04,  3.46900e-06],
                           [-9.74000e-01,  1.91700e-01,  5.28500e-02, -1.16700e-02, -1.34600e-02, -4.40300e-03, -2.59700e-04,  1.01000e-04],
                           [-5.13100e-01,  3.43200e-02,  4.23300e-02,  1.31000e-02,  9.89700e-04, -5.65300e-04, -4.91600e-05, -1.30800e-05],
                           [-2.84800e-01, -3.28400e-02,  6.74400e-03,  6.21800e-03,  1.52300e-03, -1.76400e-05,  2.15100e-05,  2.04500e-04],
                           [-1.08900e-01, -4.29100e-02, -2.60100e-03,  1.49100e-03,  8.33000e-04, -1.46500e-04, -2.19500e-04, -4.67200e-05],
                           [-3.39600e-02, -1.78900e-02, -4.31000e-03,  8.67900e-04,  6.09800e-04,  2.00600e-04, -5.04400e-06, -5.54700e-05],
                           [-6.14700e-03, -2.01100e-02, -2.45000e-03, -5.02500e-04,  4.23000e-04,  2.33500e-04,  1.68600e-05, -3.75000e-06],
                           [-1.66300e-02,  7.74700e-03, -4.63600e-03, -6.81400e-04, -4.52900e-04, -6.65800e-05,  4.98300e-05,  1.33900e-05]])
#  bRO2(+M) <=> bQOOH[O](+M)                           1.000e+00 0.000     0.000
#      TCHEB/ 180.000   1500.000 /
#      PCHEB/ 0.010     98.692   /
#      CHEB/ 10 8/
#      CHEB/ -5.562e+00   1.212e+00    -1.635e-01   3.518e-04    7.161e-03   /
#      CHEB/ 6.780e-04    -5.021e-04   -3.322e-05   4.889e+00    8.620e-01   /
#      CHEB/ 6.377e-02    -2.866e-02   -9.256e-04   3.826e-03    4.938e-04   /
#      CHEB/ -4.932e-04   -3.315e+00   -1.525e-01   1.805e-02    2.178e-02   /
#      CHEB/ 1.727e-03    -1.323e-03   -1.048e-04   1.841e-04    -1.657e+00  /
#      CHEB/ -2.343e-01   -8.540e-02   1.113e-03    1.047e-02    1.452e-03   /
#      CHEB/ -1.226e-03   -3.027e-04   -7.685e-01   -4.670e-02   -5.714e-02  /
#      CHEB/ -1.942e-02   6.209e-04    2.637e-03    3.169e-04    -3.575e-04  /
#      CHEB/ -3.851e-01   3.050e-02    5.512e-03    -6.825e-03   -4.864e-03  /
#      CHEB/ -9.818e-04   4.211e-04    2.484e-04    -2.277e-01   8.058e-03   /
#      CHEB/ 1.510e-02    7.763e-03    3.861e-04    -1.708e-03   -7.734e-04  /
#      CHEB/ 7.988e-05    -1.211e-01   -2.418e-02   -2.756e-03   4.008e-03   /
#      CHEB/ 3.547e-03    7.474e-04    -5.349e-04   -3.515e-04   -4.638e-02  /
#      CHEB/ -1.755e-02   -1.038e-02   -4.570e-03   2.645e-04    1.435e-03   /
#      CHEB/ 5.143e-04    -1.380e-04   -1.201e-03   5.913e-03    -2.615e-03  /
#      CHEB/ -4.993e-03   -2.501e-03   -1.499e-04   4.931e-04    2.316e-04   /
#  bQOOHg(+M) <=> bQOOH[O](+M)                         1.000e+00 0.000     0.000
#      TCHEB/ 180.000   1500.000 /
#      PCHEB/ 0.010     98.692   /
#      CHEB/ 10 8/
#      CHEB/ -6.204e+00   8.985e-01    -3.291e-01   -6.091e-02   3.154e-02   /
#      CHEB/ 6.106e-03    -4.100e-03   2.080e-04    -5.942e-01   1.229e+00   /
#      CHEB/ 3.617e-01    3.186e-02    -5.702e-02   1.526e-03    1.155e-02   /
#      CHEB/ -1.611e-03   -3.854e+00   -3.322e-02   1.229e-02    1.047e-01   /
#      CHEB/ 2.390e-02    -1.474e-02   -5.602e-03   2.689e-03    -2.461e+00  /