units(length='cm', time='s', quantity='mol', act_energy='kcal/mol')

ideal_gas(name='gas',
          elements="H D T C Ci O Oi N Ne Ar He Si S F Cl Br I X",
          species="""propene3ol       OH               disub_c4ether
                     H2O              disub_epoxy      gQOOHa
                     propene1ol       gQOOHb           ipropylOOH
                     galdoxy          galkene          CH2O
                     O2               gRO2             gQOOHg
                     gR               galdol           monosub_c4ether
                     HO2              gQOOH[O]""",
          reactions='all',
          initial_state=state(temperature=300.0, pressure=OneAtm))

#-------------------------------------------------------------------------------
# Element data
#-------------------------------------------------------------------------------

element(symbol='Ci', atomic_mass=13.003)
element(symbol='D', atomic_mass=2.014)
element(symbol='Oi', atomic_mass=18.0)
element(symbol='T', atomic_mass=3.016)
element(symbol='X', atomic_mass=195.083)
#-------------------------------------------------------------------------------
# Species data
#-------------------------------------------------------------------------------

species(name='propene3ol',
        atoms='C:3 H:6 O:1',
        thermo=(NASA([10.00, 444.81],
                     [ 3.92769709E+00,  4.89977303E-03,  1.13094874E-04,
                      -2.59008187E-07,  1.86205760E-10, -1.78506800E+04,
                       9.90805416E+00]),
                NASA([444.81, 3000.00],
                     [ 2.61720343E+00,  3.01777872E-02, -1.76511625E-05,
                       5.14864061E-09, -5.91153761E-13, -1.78675805E+04,
                       1.36683107E+01])))

species(name='OH',
        atoms='H:1 O:1',
        thermo=(NASA([10.00, 984.14],
                     [ 3.49686242E+00,  1.83973160E-04, -9.97634499E-07,
                       1.56942783E-09, -6.10128175E-13,  3.41673934E+03,
                       1.48093120E+00]),
                NASA([984.14, 3000.00],
                     [ 3.45221464E+00, -2.95124034E-04,  7.39418622E-07,
                      -2.89309866E-10,  3.53041498E-14,  3.45751599E+03,
                       1.85813897E+00])))

species(name='disub_c4ether',
        atoms='C:4 H:8 O:2',
        thermo=(NASA([10.00, 413.50],
                     [ 3.78241323E+00,  1.89501763E-02,  8.65302396E-05,
                      -1.80580575E-07,  1.13656264E-10, -3.93022829E+04,
                       1.09982450E+01]),
                NASA([413.50, 3000.00],
                     [ 4.29420885E-01,  5.13851903E-02, -3.11292293E-05,
                       9.11498284E-09, -1.03192718E-12, -3.90249886E+04,
                       2.42134976E+01])))

species(name='H2O',
        atoms='H:2 O:1',
        thermo=(NASA([10.00, 773.84],
                     [ 4.00473541E+00, -2.39729134E-04,  8.11862955E-07,
                       1.47891862E-09, -1.19783539E-12, -3.03533807E+04,
                      -9.96254147E-02]),
                NASA([773.84, 3000.00],
                     [ 3.52133374E+00,  1.05377009E-03,  6.40722099E-07,
                      -3.86240235E-10,  5.49243294E-14, -3.02424794E+04,
                       2.34173094E+00])))

species(name='disub_epoxy',
        atoms='C:4 H:8 O:2',
        thermo=(NASA([10.00, 549.41],
                     [ 3.89863211E+00,  5.97532637E-03,  1.66685676E-04,
                      -3.10743768E-07,  1.78330192E-10, -3.42584146E+04,
                       1.13847308E+01]),
                NASA([549.41, 3000.00],
                     [-6.40277648E-01,  6.05960003E-02, -4.13427220E-05,
                       1.31555461E-08, -1.57685017E-12, -3.40852977E+04,
                       2.76005436E+01])))

species(name='gQOOHa',
        atoms='C:4 H:9 O:3',
        thermo=(NASA([10.00, 160.74],
                     [ 3.80808147E+00,  2.31043884E-02,  5.26945984E-04,
                      -3.11500696E-06,  6.03881958E-09, -2.50792292E+04,
                       1.17645316E+01]),
                NASA([160.74, 3000.00],
                     [ 2.90630300E+00,  6.50241173E-02, -4.60073244E-05,
                       1.51330930E-08, -1.87074267E-12, -2.50754046E+04,
                       1.36838819E+01])))

species(name='propene1ol',
        atoms='C:3 H:6 O:1',
        thermo=(NASA([10.00, 459.42],
                     [ 3.91245344E+00,  5.85800161E-03,  1.15412006E-04,
                      -2.68014417E-07,  1.91800131E-10, -1.88908210E+04,
                       8.14807684E+00]),
                NASA([459.42, 3000.00],
                     [ 3.14049093E+00,  2.95550898E-02, -1.73843684E-05,
                       5.11506211E-09, -5.92966137E-13, -1.89990435E+04,
                       9.32215170E+00])))

species(name='gQOOHb',
        atoms='C:4 H:9 O:3',
        thermo=(NASA([10.00, 1018.67],
                     [ 3.99028351E+00,  4.29665712E-02,  2.28338778E-05,
                      -5.67914439E-08,  2.29383258E-11, -2.13647260E+04,
                       1.20326731E+01]),
                NASA([1018.67, 3000.00],
                     [ 1.38304153E+01,  3.88527019E-02, -2.19473905E-05,
                       5.78719895E-09, -5.85097740E-13, -2.51608108E+04,
                      -4.44147388E+01])))

species(name='ipropylOOH',
        atoms='C:3 H:7 O:2',
        thermo=(NASA([10.00, 405.01],
                     [ 3.30075623E+00,  7.58672756E-02, -3.35754269E-04,
                       8.05972164E-07, -6.68864582E-10,  2.36529988E+02,
                       1.43372849E+01]),
                NASA([405.01, 3000.00],
                     [ 2.51742509E+00,  3.72760950E-02, -2.12450220E-05,
                       5.83593926E-09, -6.22110649E-13,  6.79937594E+02,
                       2.20991392E+01])))

species(name='galdoxy',
        atoms='C:4 H:7 O:2',
        thermo=(NASA([10.00, 209.62],
                     [ 3.82641108E+00,  1.84758886E-02,  3.43073800E-04,
                      -1.82817005E-06,  2.98516720E-09, -1.87453101E+04,
                       1.17972706E+01]),
                NASA([209.62, 3000.00],
                     [ 4.22049016E+00,  4.03370149E-02, -2.36129482E-05,
                       6.72979114E-09, -7.47862493E-13, -1.88263799E+04,
                       8.97211724E+00])))

species(name='galkene',
        atoms='C:4 H:8 O:1',
        thermo=(NASA([10.00, 383.47],
                     [ 3.84035604E+00,  1.20378740E-02,  1.87486319E-04,
                      -5.44759148E-07,  4.80711015E-10, -2.01886221E+04,
                       1.02570291E+01]),
                NASA([383.47, 3000.00],
                     [ 4.00413385E+00,  3.79025144E-02, -2.15435710E-05,
                       6.15213311E-09, -6.97446345E-13, -2.04039115E+04,
                       6.98052628E+00])))

species(name='CH2O',
        atoms='C:1 H:2 O:1',
        thermo=(NASA([10.00, 601.31],
                     [ 4.03190845E+00, -1.93233367E-03,  8.89743345E-06,
                       2.98105926E-09, -7.90813886E-12, -1.42276270E+04,
                       3.47574660E+00]),
                NASA([601.31, 3000.00],
                     [ 1.40134195E+00,  9.48858016E-03, -4.43088317E-06,
                       9.48452194E-10, -7.43790219E-14, -1.38013869E+04,
                       1.57423780E+01])))

species(name='O2',
        atoms='O:2',
        thermo=(NASA([10.00, 605.96],
                     [ 3.50743498E+00, -4.43860349E-04,  1.45938058E-06,
                       1.61509333E-09, -2.32050052E-12, -9.24756224E+02,
                       4.72183634E+00]),
                NASA([605.96, 3000.00],
                     [ 2.87462882E+00,  2.17840991E-03, -1.18262921E-06,
                       2.86910493E-10, -2.53297146E-14, -8.19517838E+02,
                       7.69331810E+00])))

species(name='gRO2',
        atoms='C:4 H:9 O:3',
        thermo=(NASA([10.00, 177.33],
                     [ 3.70632176E+00,  3.49733664E-02,  4.64036392E-04,
                      -3.18637835E-06,  6.38178607E-09, -2.93696596E+04,
                       1.24459269E+01]),
                NASA([177.33, 3000.00],
                     [ 4.82062697E+00,  5.17179689E-02, -3.18386818E-05,
                       9.52247045E-09, -1.10180288E-12, -2.94750301E+04,
                       7.14082953E+00])))

species(name='gQOOHg',
        atoms='C:4 H:9 O:3',
        thermo=(NASA([10.00, 475.03],
                     [ 3.42273720E+00,  4.98344215E-02,  6.47820920E-05,
                      -2.49842966E-07,  1.98636537E-10, -2.05278103E+04,
                       1.41578583E+01]),
                NASA([475.03, 3000.00],
                     [ 5.94049074E+00,  5.53778585E-02, -3.71708255E-05,
                       1.17540477E-08, -1.40812095E-12, -2.10687646E+04,
                       7.09201218E-01])))

species(name='gR',
        atoms='C:4 H:9 O:1',
        thermo=(NASA([10.00, 638.24],
                     [ 3.37074633E+00,  5.17529751E-02, -6.54872940E-05,
                       6.88084237E-08, -3.21569794E-11, -1.16926525E+04,
                       1.14339669E+01]),
                NASA([638.24, 3000.00],
                     [ 3.99410860E+00,  4.06314915E-02, -2.23932510E-05,
                       6.08356263E-09, -6.49884708E-13, -1.16252778E+04,
                       9.85769960E+00])))

species(name='galdol',
        atoms='C:4 H:8 O:2',
        thermo=(NASA([10.00, 506.68],
                     [ 3.85380874E+00,  9.21272695E-03,  1.86712348E-04,
                      -3.96417049E-07,  2.55528268E-10, -4.81289021E+04,
                       1.24312743E+01]),
                NASA([506.68, 3000.00],
                     [ 1.49710213E+00,  5.65979142E-02, -3.87709084E-05,
                       1.23682052E-08, -1.48287964E-12, -4.82595115E+04,
                       1.85531759E+01])))

species(name='monosub_c4ether',
        atoms='C:4 H:8 O:2',
        thermo=(NASA([10.00, 380.36],
                     [ 3.47743996E+00,  6.08051311E-02, -2.78518945E-04,
                       8.23182713E-07, -7.87158031E-10, -3.15213990E+04,
                       1.06415154E+01]),
                NASA([380.36, 3000.00],
                     [-1.09346901E+00,  5.35985968E-02, -3.21081420E-05,
                       9.20818293E-09, -1.01830294E-12, -3.07738390E+04,
                       3.35312368E+01])))

species(name='HO2',
        atoms='H:1 O:2',
        thermo=(NASA([10.00, 891.11],
                     [ 4.02887004E+00, -1.75769289E-03,  1.08726004E-05,
                      -1.13812972E-08,  3.90113097E-12,  4.95165001E+02,
                       4.69302008E+00]),
                NASA([891.11, 3000.00],
                     [ 3.06571044E+00,  4.28505005E-03, -2.19325920E-06,
                       5.58882699E-10, -5.61246669E-14,  5.98557610E+02,
                       8.84564156E+00])))

species(name='gQOOH[O]',
        atoms='C:4 H:9 O:3',
        thermo=(NASA([10.00, 535.23],
                     [ 3.83107445E+00,  1.02302002E-02,  2.29377261E-04,
                      -4.59095575E-07,  2.77765018E-10, -1.98773952E+04,
                       1.41034859E+01]),
                NASA([535.23, 3000.00],
                     [-4.19283096E-01,  7.69784620E-02, -5.57279000E-05,
                       1.81378295E-08, -2.18295635E-12, -1.99235085E+04,
                       2.72711816E+01])))

#-------------------------------------------------------------------------------
# Reaction data
#-------------------------------------------------------------------------------

# Reaction 1
chebyshev_reaction('gQOOH[O] (+ M) <=> gRO2 (+ M)',
                   Tmin=180.0, Tmax=1500.0,
                   Pmin=(0.01, 'atm'), Pmax=(98.692, 'atm'),
                   coeffs=[[ 7.15500e+00,  5.73100e-01, -6.26700e-02,  2.66200e-03, -4.32600e-03,  7.22800e-04,  1.41600e-04, -1.02300e-04],
                           [ 6.41800e-01,  9.71600e-01, -7.16200e-02, -1.02500e-02, -2.97900e-03,  7.50000e-05,  3.52000e-04, -1.37300e-04],
                           [-5.00200e-01,  6.27000e-01,  1.34000e-03, -2.04200e-02,  5.54400e-04, -2.02700e-04, -1.01800e-04,  6.74000e-05],
                           [-5.52400e-01,  3.08500e-01,  3.46900e-02, -1.47200e-02,  6.54300e-04, -8.53500e-05, -3.45500e-04,  1.19400e-04],
                           [-3.02200e-01,  1.14300e-01,  2.47200e-02, -2.08500e-03,  3.14100e-05, -1.51600e-04, -2.64000e-04,  5.07200e-05],
                           [-1.14700e-01,  3.08900e-02,  2.69500e-03,  4.87100e-03,  5.04400e-04, -2.56400e-04, -1.17300e-04, -1.10100e-05],
                           [-3.14300e-02,  5.48900e-03, -8.57500e-03,  3.91400e-03,  1.22800e-03, -9.71400e-05, -5.36500e-05, -2.35300e-05],
                           [-3.88900e-03, -2.37600e-04, -7.73100e-03,  2.52900e-04,  1.18500e-03,  1.35700e-04, -2.00700e-06, -1.64300e-05],
                           [ 2.32100e-03,  9.24700e-04, -4.53900e-03, -9.46900e-04,  2.55500e-04,  2.44600e-04,  5.43400e-05, -5.57500e-06],
                           [ 3.37200e-03,  8.57900e-04, -1.46000e-03, -8.35300e-04, -2.14500e-04,  5.92300e-05,  9.48800e-05,  6.89800e-06]])

# Reaction 2
chebyshev_reaction('gQOOHa (+ M) <=> gRO2 (+ M)',
                   Tmin=180.0, Tmax=1500.0,
                   Pmin=(0.01, 'atm'), Pmax=(98.692, 'atm'),
                   coeffs=[[ 4.53700e+00,  3.92400e-01, -8.67900e-02, -2.07300e-03,  1.63200e-03,  5.61600e-04, -3.97200e-06, -3.41100e-05],
                           [ 3.43100e+00,  7.08200e-01, -1.46100e-01, -8.73700e-03,  3.38700e-03,  1.14500e-03,  3.60200e-06, -6.92500e-05],
                           [ 6.87000e-02,  5.20100e-01, -8.27600e-02, -1.71800e-02,  2.90600e-03,  1.26300e-03,  3.99100e-05, -7.13300e-05],
                           [-4.14400e-01,  3.09600e-01, -2.19100e-02, -2.01700e-02,  8.78000e-04,  1.39900e-03,  1.22200e-04, -7.12400e-05],
                           [-1.97600e-01,  1.48000e-01,  1.14600e-02, -1.49000e-02, -1.77000e-03,  1.22000e-03,  2.58700e-04, -5.80600e-05],
                           [-6.83800e-02,  5.56700e-02,  1.78900e-02, -6.17600e-03, -3.17300e-03,  5.82300e-04,  3.72300e-04, -1.70400e-05],
                           [-3.27700e-02,  1.58000e-02,  1.14300e-02,  2.15000e-04, -2.68000e-03, -1.75400e-04,  3.50300e-04,  4.52600e-05],
                           [-1.47100e-02,  3.12400e-03,  4.01100e-03,  2.42700e-03, -1.22700e-03, -5.88900e-04,  1.83300e-04,  9.19600e-05],
                           [-3.86800e-03,  3.76200e-04,  4.78400e-05,  1.95400e-03, -3.54800e-05, -5.36700e-04, -1.16300e-05,  9.00500e-05],
                           [-4.24800e-04, -2.45600e-05, -1.01100e-03,  8.43800e-04,  4.19500e-04, -2.52600e-04, -1.14500e-04,  4.62300e-05]])

# Reaction 3
chebyshev_reaction('gQOOHg (+ M) <=> gRO2 (+ M)',
                   Tmin=180.0, Tmax=1500.0,
                   Pmin=(0.01, 'atm'), Pmax=(98.692, 'atm'),
                   coeffs=[[ 6.41400e+00,  3.89100e-01, -1.10400e-01,  1.23100e-02,  8.96700e-04, -5.82300e-04, -1.96600e-05,  7.47000e-05],
                           [ 2.04800e+00,  6.86900e-01, -1.81300e-01,  1.30600e-02,  4.18800e-03, -1.40100e-03, -8.55000e-05,  1.64400e-04],
                           [-5.45900e-02,  4.81000e-01, -9.97200e-02, -6.74700e-03,  6.77300e-03, -1.09100e-03, -3.39300e-04,  1.96400e-04],
                           [-3.15800e-01,  2.74000e-01, -3.12500e-02, -1.63600e-02,  5.46500e-03,  4.66200e-05, -5.87600e-04,  1.53500e-04],
                           [-1.55600e-01,  1.29800e-01,  2.07300e-03, -1.36200e-02,  1.87900e-03,  9.82100e-04, -5.31500e-04,  2.05600e-05],
                           [-5.76700e-02,  5.24700e-02,  8.91100e-03, -6.36100e-03, -8.13700e-04,  1.07900e-03, -2.37700e-04, -9.93700e-05],
                           [-2.51600e-02,  1.79600e-02,  6.06800e-03, -1.37000e-03, -1.40600e-03,  5.99000e-04,  3.21600e-05, -1.27800e-04],
                           [-1.04000e-02,  4.66100e-03,  2.70300e-03,  3.29700e-04, -8.59600e-04,  1.42200e-04,  1.28500e-04, -8.30300e-05],
                           [-2.38900e-03,  4.43900e-04,  7.81600e-04,  4.43000e-04, -3.08300e-04, -3.85500e-05,  1.01000e-04, -2.92000e-05],
                           [ 6.31900e-04, -6.00700e-04,  3.59000e-06,  2.26400e-04, -6.95200e-05, -4.66700e-05,  5.28700e-05, -7.79900e-07]])

# Reaction 4
chebyshev_reaction('gQOOHb (+ M) <=> gRO2 (+ M)',
                   Tmin=180.0, Tmax=1500.0,
                   Pmin=(0.01, 'atm'), Pmax=(98.692, 'atm'),
                   coeffs=[[ 1.04300e+00,  1.33900e+00, -1.22800e-01, -2.00500e-02, -9.22700e-04,  5.18000e-04,  1.06800e-04,  4.16400e-05],
                           [ 3.79400e+00,  1.58000e+00, -7.38500e-02, -1.75500e-02, -5.09000e-03, -3.46300e-04,  1.84600e-04,  6.17300e-05],
                           [ 4.55400e-01,  2.51100e-01,  3.18400e-02,  1.83800e-02, -7.59200e-05, -1.76300e-03, -5.27400e-04, -2.80400e-05],
                           [-2.91500e-01, -6.10100e-03, -1.94600e-03,  3.78800e-03,  6.19800e-03,  9.06000e-04, -4.67400e-04, -2.54800e-04],
                           [-2.48700e-01,  1.13000e-01, -1.54400e-02, -1.30400e-02,  1.29800e-03,  1.79200e-03,  5.41900e-04, -5.98900e-05],
                           [-8.13600e-02,  7.97700e-02, -1.63000e-03, -4.99200e-03, -3.05400e-03, -3.58900e-05,  5.16400e-04,  1.97600e-04],
                           [ 4.68200e-03, -5.37500e-03,  6.22000e-03,  2.49200e-03, -1.72600e-03, -6.71100e-04, -8.97900e-05,  9.49100e-05],
                           [ 9.52100e-03, -1.89300e-02,  4.51800e-03,  1.03900e-03,  2.74800e-04, -2.17400e-04, -2.03500e-04, -3.58400e-05],
                           [-2.69800e-03,  1.96700e-03, -1.56900e-04, -6.50900e-04,  6.22700e-04,  4.44600e-06, -4.69400e-05, -3.41000e-05],
                           [-1.57600e-03,  5.59900e-03, -1.78900e-03,  6.18500e-06,  1.19800e-04,  4.28400e-05,  2.64600e-05, -1.43400e-05]])

# Reaction 5
chebyshev_reaction('O2 + gR (+ M) <=> gRO2 (+ M)',
                   Tmin=180.0, Tmax=1500.0,
                   Pmin=(0.01, 'atm'), Pmax=(98.692, 'atm'),
                   coeffs=[[ 1.28900e+01,  3.65500e-01, -7.99300e-02,  3.36000e-03, -4.81100e-04,  4.61300e-04, -3.56900e-05,  9.07800e-06],
                           [-1.09500e+00,  5.76100e-01, -1.01100e-01, -7.18300e-03,  1.88600e-03,  2.18400e-04,  8.85200e-05, -1.11800e-05],
                           [-4.76400e-01,  3.08600e-01, -2.15600e-02, -1.54100e-02,  1.21400e-03,  3.53200e-04,  7.86400e-05, -6.11500e-06],
                           [-2.05300e-01,  1.25400e-01,  9.86200e-03, -8.95600e-03, -1.19300e-03,  3.41000e-04,  1.14300e-04, -2.18000e-07],
                           [-8.90400e-02,  4.81200e-02,  7.94400e-03, -1.51700e-03, -1.45400e-03, -5.45400e-05,  9.81500e-05,  2.12200e-05],
                           [-3.93600e-02,  2.01700e-02,  2.68100e-03,  4.09900e-04, -4.55700e-04, -1.92000e-04,  2.52600e-06,  2.50800e-05],
                           [-1.51400e-02,  6.05300e-03,  1.69000e-03, -5.21800e-05,  3.55600e-05, -5.86300e-05, -3.88900e-05,  3.91000e-06],
                           [-2.64600e-03, -1.75700e-03,  1.65600e-03, -1.78300e-04,  8.77900e-06,  2.41100e-05, -1.28200e-05, -8.31300e-06],
                           [ 2.55200e-03, -4.11500e-03,  8.81000e-04,  5.97000e-05, -3.52800e-05,  1.04100e-05,  6.86900e-06, -3.39200e-06],
                           [ 3.75200e-03, -3.55800e-03,  6.56700e-05,  1.44800e-04,  4.80300e-06, -4.19300e-06,  2.76600e-06,  1.49100e-06]])
#  gRO2(+M) <=> gQOOH[O](+M)                           1.000e+00 0.000     0.000
#      TCHEB/ 180.000   1500.000 /
#      PCHEB/ 0.010     98.692   /
#      CHEB/ 10 8/
#      CHEB/ -6.156e+00   5.731e-01    -6.267e-02   2.662e-03    -4.326e-03  /
#      CHEB/ 7.228e-04    1.416e-04    -1.023e-04   1.045e+01    9.716e-01   /
#      CHEB/ -7.162e-02   -1.025e-02   -2.979e-03   7.500e-05    3.520e-04   /
#      CHEB/ -1.373e-04   -3.272e-01   6.270e-01    1.340e-03    -2.042e-02  /
#      CHEB/ 5.544e-04    -2.027e-04   -1.018e-04   6.740e-05    -4.277e-01  /
#      CHEB/ 3.085e-01    3.469e-02    -1.472e-02   6.543e-04    -8.535e-05  /
#      CHEB/ -3.455e-04   1.194e-04    -2.486e-01   1.143e-01    2.472e-02   /
#      CHEB/ -2.085e-03   3.141e-05    -1.516e-04   -2.640e-04   5.072e-05   /
#      CHEB/ -9.567e-02   3.089e-02    2.695e-03    4.871e-03    5.044e-04   /
#      CHEB/ -2.564e-04   -1.173e-04   -1.101e-05   -2.521e-02   5.489e-03   /
#      CHEB/ -8.575e-03   3.914e-03    1.228e-03    -9.714e-05   -5.365e-05  /
#      CHEB/ -2.353e-05   -1.970e-03   -2.376e-04   -7.731e-03   2.529e-04   /
#      CHEB/ 1.185e-03    1.357e-04    -2.007e-06   -1.643e-05   2.782e-03   /
#      CHEB/ 9.247e-04    -4.539e-03   -9.469e-04   2.555e-04    2.446e-04   /
#      CHEB/ 5.434e-05    -5.575e-06   3.343e-03    8.579e-04    -1.460e-03  /
#      CHEB/ -8.353e-04   -2.145e-04   5.923e-05    9.488e-05    6.898e-06   /

# Reaction 6
chebyshev_reaction('gQOOHa (+ M) <=> gQOOH[O] (+ M)',
                   Tmin=180.0, Tmax=1500.0,
                   Pmin=(0.01, 'atm'), Pmax=(98.692, 'atm'),
                   coeffs=[[-4.69300e+00, -8.60400e-01, -1.68800e-01,  6.85200e-03, -6.14900e-03,  1.83800e-03,  2.75800e-04, -2.56300e-04],
                           [ 7.69000e+00,  1.80700e+00, -1.75600e-01, -3.19300e-02,  1.26300e-03,  9.95000e-04,  3.62100e-04, -1.79600e-04],
                           [-6.77500e-01,  1.01300e+00,  3.68900e-04, -4.78900e-02,  3.49700e-03,  1.12900e-03, -3.34800e-04,  1.37400e-04],
                           [-6.56800e-01,  4.07000e-01,  5.28400e-02, -2.42100e-02, -6.33400e-04,  7.99700e-04, -1.28300e-04,  9.34400e-05],
                           [-2.28800e-01,  1.15100e-01,  2.56500e-02, -1.72300e-04, -1.62100e-03, -1.75800e-04,  2.29700e-04,  3.94600e-05],
                           [-5.23100e-02,  2.64400e-02, -4.51500e-03,  5.94500e-03, -1.79100e-04, -4.78200e-04,  2.92500e-04,  4.51900e-05],
                           [-1.14000e-02,  8.83100e-03, -1.02200e-02,  2.27600e-03,  9.37600e-05, -1.23600e-04,  2.38200e-04,  5.10900e-05],
                           [-8.77700e-03,  1.26100e-03, -2.63800e-03, -9.25100e-04, -5.30700e-04, -2.44000e-05,  1.98300e-04,  6.43000e-05],
                           [-2.50700e-03,  1.65100e-03, -5.28600e-04,  3.83300e-04, -1.07300e-03, -2.11000e-04,  1.31600e-04,  5.78000e-05],
                           [-5.10100e-03, -9.63400e-04,  9.80100e-04,  5.70200e-04, -3.86200e-04, -3.38300e-04, -1.50900e-05,  4.18600e-05]])

# Reaction 7
chebyshev_reaction('gQOOHg (+ M) <=> gQOOH[O] (+ M)',
                   Tmin=180.0, Tmax=1500.0,
                   Pmin=(0.01, 'atm'), Pmax=(98.692, 'atm'),
                   coeffs=[[-1.24600e+00, -7.80000e-01, -2.15500e-01,  2.55400e-02, -6.61600e-03,  5.73700e-04,  2.00200e-04, -1.65600e-04],
                           [ 4.53100e+00,  1.78900e+00, -1.85100e-01, -2.56600e-02,  8.29400e-03, -1.91500e-03, -4.53900e-04,  3.03900e-04],
                           [-5.60000e-01,  9.40800e-01, -1.95100e-02, -3.10400e-02,  6.96000e-03, -1.15700e-03, -7.46500e-04,  2.98500e-04],
                           [-5.38700e-01,  3.42400e-01,  1.91000e-02, -6.71200e-03,  2.35900e-03, -5.67600e-04, -5.24900e-04,  6.39700e-05],
                           [-1.38500e-01,  7.22500e-02,  5.58100e-03,  2.84900e-03,  2.31400e-03,  2.67000e-04, -5.41200e-04, -6.57600e-05],
                           [-1.75500e-02,  1.60000e-02, -1.16100e-02,  1.01200e-03,  1.78000e-03,  1.13200e-03, -2.49300e-04, -1.89600e-04],
                           [-1.50900e-03,  1.03800e-02, -7.75600e-03, -3.17600e-03, -1.94700e-04,  1.31300e-03,  1.55600e-04, -1.89400e-04],
                           [-5.87300e-03, -4.95600e-04,  4.01500e-03, -4.28900e-03, -1.46200e-03,  7.45400e-04,  2.67400e-04, -5.58000e-05],
                           [-3.80200e-03,  2.93200e-03,  2.15800e-03, -4.43700e-04, -1.53700e-03, -7.28500e-05,  2.45900e-04,  1.71900e-05],
                           [-6.03600e-03, -1.95700e-03,  2.97700e-03, -6.43000e-06, -5.40100e-04, -2.31100e-04,  3.12200e-05,  3.58200e-05]])

# Reaction 8
chebyshev_reaction('gQOOHb (+ M) <=> gQOOH[O] (+ M)',
                   Tmin=180.0, Tmax=1500.0,
                   Pmin=(0.01, 'atm'), Pmax=(98.692, 'atm'),
                   coeffs=[[-6.57700e+00,  6.39400e-01, -2.89800e-01, -2.69500e-02, -1.76800e-03,  1.95100e-03,  3.74700e-04, -2.38900e-04],
                           [ 6.53200e+00,  2.21700e+00,  3.41500e-02, -2.53700e-02, -1.17000e-02, -2.96300e-03,  2.43100e-04,  4.56300e-04],
                           [-2.78800e-01,  5.28500e-01,  8.43100e-02,  4.78700e-03,  6.57000e-03, -1.44900e-03, -1.62200e-03, -1.68700e-04],
                           [-5.69600e-01,  1.86500e-01,  1.41800e-02,  2.98200e-03,  7.11200e-04,  1.84700e-03,  6.03800e-04, -3.15700e-04],
                           [-1.06600e-01,  1.15600e-02,  2.03500e-03,  7.21400e-03, -2.07600e-03, -3.63700e-04,  5.07000e-04,  2.36200e-04],
                           [ 1.54300e-02, -1.64400e-02, -9.11000e-03,  1.62400e-03,  2.20400e-03, -3.97300e-04, -3.70700e-04,  4.95400e-05],
                           [ 4.71600e-03,  3.82400e-03, -6.96900e-03, -3.25500e-03,  8.87000e-04,  7.06000e-04, -4.02700e-05, -1.40200e-04],
                           [-7.29400e-04, -5.09900e-03,  3.34500e-03, -2.74400e-03, -1.07200e-03,  4.07900e-04,  2.25500e-04,  4.35700e-06],
                           [ 3.85100e-03, -5.14500e-03,  2.50500e-03, -2.43300e-04, -7.13400e-04, -2.41900e-04,  9.55000e-05,  8.40700e-05],
                           [-1.56600e-03, -4.87700e-03,  1.36900e-03,  1.80000e-04, -4.49600e-05, -2.02400e-04, -5.99900e-05,  2.05700e-05]])

# Reaction 9
chebyshev_reaction('O2 + gR (+ M) <=> gQOOH[O] (+ M)',
                   Tmin=180.0, Tmax=1500.0,
                   Pmin=(0.01, 'atm'), Pmax=(98.692, 'atm'),
                   coeffs=[[ 6.92800e+00, -4.53400e-01, -2.81600e-01,  1.48300e-02,  5.24800e-03, -3.12500e-03,  1.96700e-05,  4.37800e-04],
                           [-5.57000e-01,  1.42200e+00,  3.03100e-02, -6.00300e-02, -8.05700e-03,  5.57900e-03, -1.63100e-04, -6.47000e-04],
                           [-6.95300e-01,  5.81400e-01,  6.01000e-02, -7.47100e-03, -5.29700e-03, -2.04800e-03,  5.78500e-04,  2.43900e-04],
                           [-2.89800e-01,  9.51000e-02,  3.59500e-02,  1.23400e-02,  1.19400e-05, -1.78300e-03, -2.63300e-04,  7.57900e-05],
                           [-3.24700e-02, -1.62600e-02, -2.79100e-05,  6.63700e-03,  3.10100e-03,  2.39500e-04, -4.23200e-04, -1.06200e-04],
                           [ 9.02500e-03, -1.08300e-03, -8.63300e-03, -2.64900e-03,  1.59300e-03,  1.13500e-03,  5.95900e-05, -1.15100e-04],
                           [ 1.69500e-03,  6.00600e-03, -2.34900e-03, -4.21200e-03, -3.68700e-04,  5.20400e-04,  2.32000e-04,  4.36800e-05],
                           [ 4.59800e-03, -1.64200e-02,  5.80600e-03, -3.07600e-04, -1.83900e-03, -1.30600e-04,  2.76000e-04,  3.80900e-05],
                           [-3.20100e-03,  2.04100e-03, -3.11800e-04, -3.95200e-04,  2.79000e-04, -3.23000e-04, -1.60800e-04,  8.13300e-05],
                           [ 1.17100e-03, -9.84700e-03,  2.19700e-03,  9.31800e-04, -5.11500e-04, -7.20300e-05,  4.49300e-05, -4.37500e-05]])
#  gRO2(+M) <=> gQOOHa(+M)                             1.000e+00 0.000     0.000
#      TCHEB/ 180.000   1500.000 /
#      PCHEB/ 0.010     98.692   /
#      CHEB/ 10 8/
#      CHEB/ -1.569e+00   3.924e-01    -8.679e-02   -2.073e-03   1.632e-03   /
#      CHEB/ 5.616e-04    -3.972e-06   -3.411e-05   8.205e+00    7.082e-01   /
#      CHEB/ -1.461e-01   -8.737e-03   3.387e-03    1.145e-03    3.602e-06   /
#      CHEB/ -6.925e-05   2.304e-01    5.201e-01    -8.276e-02   -1.718e-02  /
#      CHEB/ 2.906e-03    1.263e-03    3.991e-05    -7.133e-05   -3.402e-01  /
#      CHEB/ 3.096e-01    -2.191e-02   -2.017e-02   8.780e-04    1.399e-03   /
#      CHEB/ 1.222e-04    -7.124e-05   -1.691e-01   1.480e-01    1.146e-02   /
#      CHEB/ -1.490e-02   -1.770e-03   1.220e-03    2.587e-04    -5.806e-05  /
#      CHEB/ -5.859e-02   5.567e-02    1.789e-02    -6.176e-03   -3.173e-03  /
#      CHEB/ 5.823e-04    3.723e-04    -1.704e-05   -2.987e-02   1.580e-02   /
#      CHEB/ 1.143e-02    2.150e-04    -2.680e-03   -1.754e-04   3.503e-04   /
#      CHEB/ 4.526e-05    -1.408e-02   3.124e-03    4.011e-03    2.427e-03   /
#      CHEB/ -1.227e-03   -5.889e-04   1.833e-04    9.196e-05    -3.872e-03  /
#      CHEB/ 3.762e-04    4.784e-05    1.954e-03    -3.548e-05   -5.367e-04  /
#      CHEB/ -1.163e-05   9.005e-05    -5.425e-04   -2.456e-05   -1.011e-03  /
#      CHEB/ 8.438e-04    4.195e-04    -2.526e-04   -1.145e-04   4.623e-05   /
#  gQOOH[O](+M) <=> gQOOHa(+M)                         1.000e+00 0.000     0.000
#      TCHEB/ 180.000   1500.000 /
#      PCHEB/ 0.010     98.692   /
#      CHEB/ 10 8/
#      CHEB/ 2.512e+00    -8.604e-01   -1.688e-01   6.852e-03    -6.149e-03  /
#      CHEB/ 1.838e-03    2.758e-04    -2.563e-04   2.652e+00    1.807e+00   /
#      CHEB/ -1.756e-01   -3.193e-02   1.263e-03    9.950e-04    3.621e-04   /
#      CHEB/ -1.796e-04   -6.888e-01   1.013e+00    3.689e-04    -4.789e-02  /
#      CHEB/ 3.497e-03    1.129e-03    -3.348e-04   1.374e-04    -7.074e-01  /
#      CHEB/ 4.070e-01    5.284e-02    -2.421e-02   -6.334e-04   7.997e-04   /
#      CHEB/ -1.283e-04   9.344e-05    -2.540e-01   1.151e-01    2.565e-02   /
#      CHEB/ -1.723e-04   -1.621e-03   -1.758e-04   2.297e-04    3.946e-05   /
#      CHEB/ -6.156e-02   2.644e-02    -4.515e-03   5.945e-03    -1.791e-04  /
#      CHEB/ -4.782e-04   2.925e-04    4.519e-05    -1.471e-02   8.831e-03   /
#      CHEB/ -1.022e-02   2.276e-03    9.376e-05    -1.236e-04   2.382e-04   /
#      CHEB/ 5.109e-05    -1.006e-02   1.261e-03    -2.638e-03   -9.251e-04  /
#      CHEB/ -5.307e-04   -2.440e-05   1.983e-04    6.430e-05    -2.972e-03  /
#      CHEB/ 1.651e-03    -5.286e-04   3.833e-04    -1.073e-03   -2.110e-04  /