units(length='cm', time='s', quantity='mol', act_energy='kcal/mol')

ideal_gas(name='gas',
          elements="H D T C Ci O Oi N Ne Ar He Si S F Cl Br I X",
          species="""propene3ol       OH               disub_c4ether
                     H2O              disub_epoxy      gQOOHa
                     propene1ol       gQOOHb           ipropylOOH
                     galdoxy          galkene          CH2O
                     O2               gRO2             gQOOHg
                     gR               galdol           monosub_c4ether
                     HO2              gQOOH[O]""",
          reactions='all',
          initial_state=state(temperature=300.0, pressure=OneAtm))

#-------------------------------------------------------------------------------
# Element data
#-------------------------------------------------------------------------------

element(symbol='Ci', atomic_mass=13.003)
element(symbol='D', atomic_mass=2.014)
element(symbol='Oi', atomic_mass=18.0)
element(symbol='T', atomic_mass=3.016)
element(symbol='X', atomic_mass=195.083)
#-------------------------------------------------------------------------------
# Species data
#-------------------------------------------------------------------------------

species(name='propene3ol',
        atoms='C:3 H:6 O:1',
        thermo=(NASA([10.00, 444.81],
                     [ 3.92769709E+00,  4.89977303E-03,  1.13094874E-04,
                      -2.59008187E-07,  1.86205760E-10, -1.70266251E+04,
                       9.90805416E+00]),
                NASA([444.81, 3000.00],
                     [ 2.61720343E+00,  3.01777872E-02, -1.76511625E-05,
                       5.14864061E-09, -5.91153761E-13, -1.70435256E+04,
                       1.36683107E+01])))

species(name='OH',
        atoms='H:1 O:1',
        thermo=(NASA([10.00, 984.14],
                     [ 3.49686242E+00,  1.83973160E-04, -9.97634499E-07,
                       1.56942783E-09, -6.10128175E-13,  3.41673934E+03,
                       1.48093120E+00]),
                NASA([984.14, 3000.00],
                     [ 3.45221464E+00, -2.95124034E-04,  7.39418622E-07,
                      -2.89309866E-10,  3.53041498E-14,  3.45751599E+03,
                       1.85813897E+00])))

species(name='disub_c4ether',
        atoms='C:4 H:8 O:2',
        thermo=(NASA([10.00, 413.50],
                     [ 3.78241323E+00,  1.89501763E-02,  8.65302396E-05,
                      -1.80580575E-07,  1.13656264E-10, -3.92791556E+04,
                       1.09982450E+01]),
                NASA([413.50, 3000.00],
                     [ 4.29420885E-01,  5.13851903E-02, -3.11292293E-05,
                       9.11498284E-09, -1.03192718E-12, -3.90018613E+04,
                       2.42134976E+01])))

species(name='H2O',
        atoms='H:2 O:1',
        thermo=(NASA([10.00, 773.84],
                     [ 4.00473541E+00, -2.39729134E-04,  8.11862955E-07,
                       1.47891862E-09, -1.19783539E-12, -3.03533807E+04,
                      -9.96254147E-02]),
                NASA([773.84, 3000.00],
                     [ 3.52133374E+00,  1.05377009E-03,  6.40722099E-07,
                      -3.86240235E-10,  5.49243294E-14, -3.02424794E+04,
                       2.34173094E+00])))

species(name='disub_epoxy',
        atoms='C:4 H:8 O:2',
        thermo=(NASA([10.00, 549.41],
                     [ 3.89863211E+00,  5.97532637E-03,  1.66685676E-04,
                      -3.10743768E-07,  1.78330192E-10, -3.71785607E+04,
                       1.13847308E+01]),
                NASA([549.41, 3000.00],
                     [-6.40277648E-01,  6.05960003E-02, -4.13427220E-05,
                       1.31555461E-08, -1.57685017E-12, -3.70054439E+04,
                       2.76005436E+01])))

species(name='gQOOHa',
        atoms='C:4 H:9 O:3',
        thermo=(NASA([10.00, 160.74],
                     [ 3.80808147E+00,  2.31043884E-02,  5.26945984E-04,
                      -3.11500696E-06,  6.03881958E-09, -2.41074149E+04,
                       1.17645316E+01]),
                NASA([160.74, 3000.00],
                     [ 2.90630300E+00,  6.50241173E-02, -4.60073244E-05,
                       1.51330930E-08, -1.87074267E-12, -2.41035903E+04,
                       1.36838819E+01])))

species(name='propene1ol',
        atoms='C:3 H:6 O:1',
        thermo=(NASA([10.00, 459.42],
                     [ 3.91245344E+00,  5.85800161E-03,  1.15412006E-04,
                      -2.68014417E-07,  1.91800131E-10, -1.99007525E+04,
                       8.14807684E+00]),
                NASA([459.42, 3000.00],
                     [ 3.14049093E+00,  2.95550898E-02, -1.73843684E-05,
                       5.11506211E-09, -5.92966137E-13, -2.00089750E+04,
                       9.32215170E+00])))

species(name='gQOOHb',
        atoms='C:4 H:9 O:3',
        thermo=(NASA([10.00, 1018.67],
                     [ 3.99028351E+00,  4.29665712E-02,  2.28338778E-05,
                      -5.67914439E-08,  2.29383258E-11, -2.20651664E+04,
                       1.20326731E+01]),
                NASA([1018.67, 3000.00],
                     [ 1.38304153E+01,  3.88527019E-02, -2.19473905E-05,
                       5.78719895E-09, -5.85097740E-13, -2.58612512E+04,
                      -4.44147388E+01])))

species(name='ipropylOOH',
        atoms='C:3 H:7 O:2',
        thermo=(NASA([10.00, 405.01],
                     [ 3.30075623E+00,  7.58672756E-02, -3.35754269E-04,
                       8.05972164E-07, -6.68864582E-10, -1.59769941E+03,
                       1.43372849E+01]),
                NASA([405.01, 3000.00],
                     [ 2.51742509E+00,  3.72760950E-02, -2.12450220E-05,
                       5.83593926E-09, -6.22110649E-13, -1.15429181E+03,
                       2.20991392E+01])))

species(name='galdoxy',
        atoms='C:4 H:7 O:2',
        thermo=(NASA([10.00, 209.62],
                     [ 3.82641108E+00,  1.84758886E-02,  3.43073800E-04,
                      -1.82817005E-06,  2.98516720E-09, -1.83100493E+04,
                       1.17972706E+01]),
                NASA([209.62, 3000.00],
                     [ 4.22049016E+00,  4.03370149E-02, -2.36129482E-05,
                       6.72979114E-09, -7.47862493E-13, -1.83911191E+04,
                       8.97211724E+00])))

species(name='galkene',
        atoms='C:4 H:8 O:1',
        thermo=(NASA([10.00, 383.47],
                     [ 3.84035604E+00,  1.20378740E-02,  1.87486319E-04,
                      -5.44759148E-07,  4.80711015E-10, -2.04259986E+04,
                       1.02570291E+01]),
                NASA([383.47, 3000.00],
                     [ 4.00413385E+00,  3.79025144E-02, -2.15435710E-05,
                       6.15213311E-09, -6.97446345E-13, -2.06412879E+04,
                       6.98052628E+00])))

species(name='CH2O',
        atoms='C:1 H:2 O:1',
        thermo=(NASA([10.00, 601.31],
                     [ 4.03190845E+00, -1.93233367E-03,  8.89743345E-06,
                       2.98105926E-09, -7.90813886E-12, -1.42276270E+04,
                       3.47574660E+00]),
                NASA([601.31, 3000.00],
                     [ 1.40134195E+00,  9.48858016E-03, -4.43088317E-06,
                       9.48452194E-10, -7.43790219E-14, -1.38013869E+04,
                       1.57423780E+01])))

species(name='O2',
        atoms='O:2',
        thermo=(NASA([10.00, 605.96],
                     [ 3.50743498E+00, -4.43860349E-04,  1.45938058E-06,
                       1.61509333E-09, -2.32050052E-12, -9.24756224E+02,
                       4.72183634E+00]),
                NASA([605.96, 3000.00],
                     [ 2.87462882E+00,  2.17840991E-03, -1.18262921E-06,
                       2.86910493E-10, -2.53297146E-14, -8.19517838E+02,
                       7.69331810E+00])))

species(name='gRO2',
        atoms='C:4 H:9 O:3',
        thermo=(NASA([10.00, 177.33],
                     [ 3.70632176E+00,  3.49733664E-02,  4.64036392E-04,
                      -3.18637835E-06,  6.38178607E-09, -2.88356972E+04,
                       1.24459269E+01]),
                NASA([177.33, 3000.00],
                     [ 4.82062697E+00,  5.17179689E-02, -3.18386818E-05,
                       9.52247045E-09, -1.10180288E-12, -2.89410678E+04,
                       7.14082953E+00])))

species(name='gQOOHg',
        atoms='C:4 H:9 O:3',
        thermo=(NASA([10.00, 475.03],
                     [ 3.42273720E+00,  4.98344215E-02,  6.47820920E-05,
                      -2.49842966E-07,  1.98636537E-10, -2.20602692E+04,
                       1.41578583E+01]),
                NASA([475.03, 3000.00],
                     [ 5.94049074E+00,  5.53778585E-02, -3.71708255E-05,
                       1.17540477E-08, -1.40812095E-12, -2.26012235E+04,
                       7.09201218E-01])))

species(name='gR',
        atoms='C:4 H:9 O:1',
        thermo=(NASA([10.00, 638.24],
                     [ 3.37074633E+00,  5.17529751E-02, -6.54872940E-05,
                       6.88084237E-08, -3.21569794E-11, -1.30256278E+04,
                       1.14339669E+01]),
                NASA([638.24, 3000.00],
                     [ 3.99410860E+00,  4.06314915E-02, -2.23932510E-05,
                       6.08356263E-09, -6.49884708E-13, -1.29582531E+04,
                       9.85769960E+00])))

species(name='galdol',
        atoms='C:4 H:8 O:2',
        thermo=(NASA([10.00, 506.68],
                     [ 3.85380874E+00,  9.21272695E-03,  1.86712348E-04,
                      -3.96417049E-07,  2.55528268E-10, -4.47022368E+04,
                       1.24312743E+01]),
                NASA([506.68, 3000.00],
                     [ 1.49710213E+00,  5.65979142E-02, -3.87709084E-05,
                       1.23682052E-08, -1.48287964E-12, -4.48328462E+04,
                       1.85531759E+01])))

species(name='monosub_c4ether',
        atoms='C:4 H:8 O:2',
        thermo=(NASA([10.00, 380.36],
                     [ 3.47743996E+00,  6.08051311E-02, -2.78518945E-04,
                       8.23182713E-07, -7.87158031E-10, -3.31822164E+04,
                       1.06415154E+01]),
                NASA([380.36, 3000.00],
                     [-1.09346901E+00,  5.35985968E-02, -3.21081420E-05,
                       9.20818293E-09, -1.01830294E-12, -3.24346564E+04,
                       3.35312368E+01])))

species(name='HO2',
        atoms='H:1 O:2',
        thermo=(NASA([10.00, 891.11],
                     [ 4.02887004E+00, -1.75769289E-03,  1.08726004E-05,
                      -1.13812972E-08,  3.90113097E-12,  4.95165001E+02,
                       4.69302008E+00]),
                NASA([891.11, 3000.00],
                     [ 3.06571044E+00,  4.28505005E-03, -2.19325920E-06,
                       5.58882699E-10, -5.61246669E-14,  5.98557610E+02,
                       8.84564156E+00])))

species(name='gQOOH[O]',
        atoms='C:4 H:9 O:3',
        thermo=(NASA([10.00, 535.23],
                     [ 3.83107445E+00,  1.02302002E-02,  2.29377261E-04,
                      -4.59095575E-07,  2.77765018E-10, -1.99223308E+04,
                       1.41034859E+01]),
                NASA([535.23, 3000.00],
                     [-4.19283096E-01,  7.69784620E-02, -5.57279000E-05,
                       1.81378295E-08, -2.18295635E-12, -1.99684441E+04,
                       2.72711816E+01])))

#-------------------------------------------------------------------------------
# Reaction data
#-------------------------------------------------------------------------------

# Reaction 1
chebyshev_reaction('gQOOH[O] (+ M) <=> gRO2 (+ M)',
                   Tmin=180.0, Tmax=1500.0,
                   Pmin=(0.01, 'atm'), Pmax=(98.692, 'atm'),
                   coeffs=[[ 9.01800e+00,  1.15800e+00, -2.43900e-01, -8.41700e-03,  8.14600e-03,  1.81800e-03, -3.71100e-04, -2.57300e-04],
                           [-1.09200e-01,  7.18800e-01,  3.47000e-02, -4.35100e-02, -1.03000e-02,  4.04400e-03,  1.77300e-03, -1.94200e-04],
                           [-4.72900e-01,  1.44100e-01,  6.16900e-02,  1.55600e-02, -1.10500e-02, -3.73200e-03,  8.88000e-04,  7.15900e-04],
                           [-2.89100e-01,  3.09100e-02,  1.90400e-02,  2.39900e-02, -8.95100e-05, -4.13200e-03, -1.10200e-03,  4.43500e-04],
                           [-1.80200e-01,  5.28000e-02, -2.76000e-03,  1.07300e-02,  3.84800e-03, -1.09100e-03, -1.17300e-03, -1.74400e-04],
                           [-1.05300e-01,  3.76900e-02, -2.64800e-03,  3.45600e-03,  2.32000e-03,  2.59700e-04, -3.99100e-04, -2.51800e-04],
                           [-5.21100e-02,  1.54300e-02, -1.84000e-03,  1.39300e-03,  9.75400e-04,  2.71500e-04,  3.88800e-05, -9.53200e-05],
                           [-3.16000e-02,  1.79100e-02, -5.28300e-03, -6.72200e-04,  8.56800e-04,  3.28100e-04,  7.50700e-05, -3.28600e-05],
                           [-1.15700e-03, -5.01500e-03, -1.86800e-03,  2.33300e-04,  2.07800e-04, -9.59900e-06,  9.45500e-05,  5.05000e-05],
                           [-6.86000e-03,  1.01700e-02, -4.63400e-03, -1.18500e-03,  4.71500e-04,  1.75300e-04, -1.23200e-05,  5.15100e-06]])

# Reaction 2
chebyshev_reaction('gQOOHa (+ M) <=> gRO2 (+ M)',
                   Tmin=180.0, Tmax=1500.0,
                   Pmin=(0.01, 'atm'), Pmax=(98.692, 'atm'),
                   coeffs=[[ 3.59400e+00,  5.87400e-01, -1.34000e-01, -1.98600e-03,  2.03900e-03,  3.81600e-04,  1.96800e-04,  4.16700e-05],
                           [ 3.48500e+00,  9.32800e-01, -1.80900e-01, -1.55900e-02,  2.28700e-03,  1.40800e-03,  4.01200e-04,  5.14500e-05],
                           [ 3.44500e-01,  4.52600e-01, -2.78300e-02, -2.61600e-02, -3.21800e-03,  2.06400e-03,  5.99600e-04,  2.16200e-05],
                           [-2.57800e-01,  1.20400e-01,  3.96400e-02, -1.25700e-02, -8.03100e-03,  6.75900e-04,  9.58500e-04,  1.24600e-04],
                           [-1.24200e-01,  2.21300e-02,  2.02600e-02,  7.19500e-03, -6.53400e-03, -1.87600e-03,  8.17400e-04,  3.47600e-04],
                           [-2.32000e-02,  2.18700e-02, -7.75400e-03,  1.20400e-02, -1.04900e-03, -2.79400e-03,  9.59300e-06,  4.32000e-04],
                           [-1.30200e-02,  2.17700e-02, -1.22900e-02,  5.93100e-03,  2.44800e-03, -1.62600e-03, -6.68700e-04,  2.31800e-04],
                           [-1.42900e-02,  1.38600e-02, -6.70600e-03,  4.32000e-04,  2.57900e-03, -2.03700e-04, -6.77500e-04, -4.47700e-05],
                           [-8.51600e-03,  8.70200e-03, -2.84500e-03, -1.34900e-03,  1.49500e-03,  3.72500e-04, -3.31000e-04, -1.56800e-04],
                           [-4.09000e-03,  5.85900e-03, -1.10400e-03, -1.36700e-03,  6.35800e-04,  3.82700e-04, -7.55600e-05, -1.17300e-04]])

# Reaction 3
chebyshev_reaction('gQOOHg (+ M) <=> gRO2 (+ M)',
                   Tmin=180.0, Tmax=1500.0,
                   Pmin=(0.01, 'atm'), Pmax=(98.692, 'atm'),
                   coeffs=[[ 4.10900e+00,  1.72900e-01, -7.21900e-02,  1.53300e-02, -5.54600e-04, -4.80800e-04,  1.33200e-04, -1.24300e-05],
                           [ 4.39700e+00,  3.21400e-01, -1.31300e-01,  2.60100e-02, -7.51200e-05, -1.05200e-03,  2.41100e-04, -1.54100e-05],
                           [ 2.22700e-01,  2.59200e-01, -9.87700e-02,  1.49500e-02,  2.10300e-03, -1.12100e-03,  1.42400e-04,  1.12400e-05],
                           [-2.58900e-01,  1.83200e-01, -6.09000e-02,  3.47500e-03,  3.67900e-03, -8.64500e-04, -3.33800e-05,  4.12700e-05],
                           [-8.54200e-02,  1.15100e-01, -2.97500e-02, -4.01600e-03,  3.72700e-03, -2.86100e-04, -2.10100e-04,  4.95100e-05],
                           [-3.90300e-02,  6.54900e-02, -1.00600e-02, -6.63300e-03,  2.56900e-03,  3.20000e-04, -2.88300e-04,  2.31500e-05],
                           [-3.11400e-02,  3.46200e-02, -5.60200e-04, -5.92200e-03,  1.09300e-03,  6.70500e-04, -2.36100e-04, -2.32800e-05],
                           [-1.69100e-02,  1.76500e-02,  2.48600e-03, -3.92900e-03, -1.35900e-05,  6.92500e-04, -1.04800e-04, -6.08900e-05],
                           [-8.97300e-03,  9.09000e-03,  2.53100e-03, -2.03700e-03, -5.38900e-04,  4.97200e-04,  2.46900e-05, -7.02800e-05],
                           [-5.73700e-03,  4.87800e-03,  1.71100e-03, -7.81600e-04, -6.10200e-04,  2.46200e-04,  9.96500e-05, -5.26000e-05]])

# Reaction 4
chebyshev_reaction('gQOOHb (+ M) <=> gRO2 (+ M)',
                   Tmin=180.0, Tmax=1500.0,
                   Pmin=(0.01, 'atm'), Pmax=(98.692, 'atm'),
                   coeffs=[[ 3.85600e+00,  1.26400e+00, -9.19100e-02, -5.16900e-03, -2.32000e-03,  3.73000e-05, -2.64100e-05, -1.77900e-05],
                           [ 1.44200e+00,  1.15200e+00, -1.06300e-02,  5.72300e-03, -1.73000e-03, -1.84600e-03, -2.47900e-04,  9.30200e-05],
                           [ 5.72900e-01,  4.08700e-02, -2.58500e-02,  2.66600e-02,  5.29600e-03, -7.55100e-04, -4.77200e-04, -6.29500e-05],
                           [ 1.25200e-01, -8.16800e-02, -4.65500e-02,  5.77400e-03,  3.64800e-03,  9.06500e-04,  1.28800e-04, -1.95900e-05],
                           [-1.07300e-01,  6.35700e-02, -2.59100e-02, -5.84400e-03,  3.33400e-04,  5.75400e-05,  9.42200e-05,  1.05600e-04],
                           [-1.16900e-01,  9.76500e-02, -1.27100e-02, -2.87700e-03,  8.83400e-04, -5.36300e-04, -2.48900e-04,  3.36500e-05],
                           [-3.95100e-02,  4.33700e-02, -7.44500e-03,  9.07500e-05,  1.44700e-03, -1.70500e-04, -2.28700e-04, -3.81700e-05],
                           [ 7.38200e-03, -7.38700e-04, -1.70100e-03, -6.79600e-04,  8.95800e-04,  2.30900e-04, -8.57800e-05, -4.11300e-05],
                           [ 6.42000e-03, -3.76500e-03,  1.06200e-03, -1.95000e-03,  3.23300e-04,  3.29200e-04, -3.35700e-05, -2.87000e-05],
                           [-7.61000e-03,  8.83000e-03, -1.50700e-04, -1.71900e-03,  1.26200e-04,  2.06100e-04, -1.90800e-05, -1.86400e-05]])

# Reaction 5
chebyshev_reaction('O2 + gR (+ M) <=> gRO2 (+ M)',
                   Tmin=180.0, Tmax=1500.0,
                   Pmin=(0.01, 'atm'), Pmax=(98.692, 'atm'),
                   coeffs=[[ 6.86900e+00,  8.82200e-02, -3.86100e-02,  8.31100e-03, -2.27800e-05, -2.43400e-04, -5.39900e-05,  2.17000e-05],
                           [-6.87900e-01,  1.63700e-01, -7.02600e-02,  1.40800e-02,  5.44500e-04, -5.63500e-04, -1.01200e-04,  4.06400e-05],
                           [-2.55100e-01,  1.32200e-01, -5.35400e-02,  8.35000e-03,  1.67200e-03, -6.32100e-04, -1.11700e-04,  3.79000e-05],
                           [-1.19300e-01,  9.52500e-02, -3.48600e-02,  2.70700e-03,  2.38700e-03, -5.20500e-04, -1.51800e-04,  3.36800e-05],
                           [-6.43600e-02,  6.31400e-02, -1.99100e-02, -8.37400e-04,  2.31800e-03, -2.53200e-04, -1.88500e-04,  2.10000e-05],
                           [-3.69000e-02,  3.98100e-02, -1.02800e-02, -2.19100e-03,  1.73400e-03,  1.57800e-05, -1.85300e-04, -3.14200e-07],
                           [-2.17900e-02,  2.44400e-02, -4.87200e-03, -2.24000e-03,  1.06900e-03,  1.73300e-04, -1.41400e-04, -2.09900e-05],
                           [-1.30300e-02,  1.47100e-02, -2.03700e-03, -1.81700e-03,  5.68300e-04,  2.13200e-04, -8.36500e-05, -3.17100e-05],
                           [-7.78600e-03,  8.63300e-03, -6.11600e-04, -1.33300e-03,  2.58400e-04,  1.88500e-04, -3.74300e-05, -3.10000e-05],
                           [-4.60800e-03,  4.92800e-03,  3.22100e-05, -9.07400e-04,  8.01600e-05,  1.46300e-04, -1.00700e-05, -2.39800e-05]])
#  gRO2(+M) <=> gQOOH[O](+M)                           1.000e+00 0.000     0.000
#      TCHEB/ 180.000   1500.000 /
#      PCHEB/ 0.010     98.692   /
#      CHEB/ 10 8/
#      CHEB/ -3.511e+00   1.158e+00    -2.439e-01   -8.417e-03   8.146e-03   /
#      CHEB/ 1.818e-03    -3.711e-04   -2.573e-04   9.089e+00    7.188e-01   /
#      CHEB/ 3.470e-02    -4.351e-02   -1.030e-02   4.044e-03    1.773e-03   /
#      CHEB/ -1.942e-04   -2.999e-01   1.441e-01    6.169e-02    1.556e-02   /
#      CHEB/ -1.105e-02   -3.732e-03   8.880e-04    7.159e-04    -1.644e-01  /
#      CHEB/ 3.091e-02    1.904e-02    2.399e-02    -8.951e-05   -4.132e-03  /
#      CHEB/ -1.102e-03   4.435e-04    -1.265e-01   5.280e-02    -2.760e-03  /
#      CHEB/ 1.073e-02    3.848e-03    -1.091e-03   -1.173e-03   -1.744e-04  /
#      CHEB/ -8.626e-02   3.769e-02    -2.648e-03   3.456e-03    2.320e-03   /
#      CHEB/ 2.597e-04    -3.991e-04   -2.518e-04   -4.590e-02   1.543e-02   /
#      CHEB/ -1.840e-03   1.393e-03    9.754e-04    2.715e-04    3.888e-05   /
#      CHEB/ -9.532e-05   -2.968e-02   1.791e-02    -5.283e-03   -6.722e-04  /
#      CHEB/ 8.568e-04    3.281e-04    7.507e-05    -3.286e-05   -6.958e-04  /
#      CHEB/ -5.015e-03   -1.868e-03   2.333e-04    2.078e-04    -9.599e-06  /
#      CHEB/ 9.455e-05    5.050e-05    -6.889e-03   1.017e-02    -4.634e-03  /
#      CHEB/ -1.185e-03   4.715e-04    1.753e-04    -1.232e-05   5.151e-06   /

# Reaction 6
chebyshev_reaction('gQOOHa (+ M) <=> gQOOH[O] (+ M)',
                   Tmin=180.0, Tmax=1500.0,
                   Pmin=(0.01, 'atm'), Pmax=(98.692, 'atm'),
                   coeffs=[[-3.66100e+00,  1.13500e-01, -4.19700e-01, -2.68900e-02,  1.24900e-02,  5.64000e-03, -5.07000e-04, -8.65900e-04],
                           [ 6.81000e+00,  1.45900e+00, -4.10100e-02, -4.77800e-02, -1.24900e-02,  1.20300e-03,  2.62800e-03,  4.97100e-04],
                           [-2.00300e-01,  4.03600e-01,  9.90000e-02, -5.01900e-03, -1.07000e-02, -2.82500e-03, -1.16200e-04,  7.48100e-04],
                           [-3.55200e-01,  1.05900e-01,  5.84300e-02,  1.84900e-02, -6.99000e-03, -2.58100e-03, -1.63000e-04,  6.74400e-05],
                           [-1.60500e-01,  6.70800e-02,  7.45800e-03,  1.77400e-02, -1.66100e-03, -2.82600e-03,  4.23300e-04,  2.45600e-04],
                           [-3.94800e-02,  3.82400e-02, -1.27200e-02,  7.81000e-03,  3.64800e-03, -1.94700e-03, -4.49500e-04,  4.14100e-04],
                           [ 1.03000e-03,  1.53200e-02, -1.32800e-02, -5.59800e-05,  4.03500e-03, -8.80700e-05, -8.00100e-04,  6.49900e-05],
                           [-6.87300e-03,  2.15100e-02, -7.88600e-03, -4.58000e-03,  1.46900e-03,  1.09800e-03, -2.35800e-04, -2.31800e-04],
                           [ 1.52400e-02, -4.03800e-03, -4.19600e-03, -4.82900e-04,  3.99000e-04,  2.04800e-04, -7.56400e-05, -8.03200e-05],
                           [-2.87700e-03,  1.38200e-02, -1.50900e-03, -2.26600e-03, -2.31800e-04,  3.69600e-04,  1.03300e-04, -8.32100e-05]])

# Reaction 7
chebyshev_reaction('gQOOHg (+ M) <=> gQOOH[O] (+ M)',
                   Tmin=180.0, Tmax=1500.0,
                   Pmin=(0.01, 'atm'), Pmax=(98.692, 'atm'),
                   coeffs=[[-2.04100e+00, -3.30800e-01, -3.16200e-01, -2.65800e-02,  8.78400e-03,  6.67000e-03, -1.36100e-04, -1.19100e-03],
                           [ 6.43900e+00,  7.38100e-01, -8.98400e-03,  2.80600e-02, -1.98000e-02, -4.75200e-03,  2.55600e-03,  1.04200e-03],
                           [-1.30800e-01,  3.80300e-01, -3.08300e-02,  3.59400e-02,  5.66400e-04, -6.26600e-03, -1.08400e-03,  6.21400e-04],
                           [-3.64600e-01,  2.17600e-01, -2.95500e-02,  1.28900e-02,  9.05600e-03, -1.98100e-03, -1.60800e-03, -2.71800e-04],
                           [-1.53500e-01,  1.28500e-01, -1.39400e-02, -4.06300e-03,  6.32600e-03,  6.97100e-04, -3.47200e-04, -2.55500e-04],
                           [-3.66200e-02,  5.94300e-02, -9.51000e-03, -7.57400e-03,  3.83500e-03,  1.36300e-03, -1.31400e-04, -5.99600e-05],
                           [ 4.37600e-03,  2.10400e-02, -7.85100e-03, -6.07000e-03,  1.65100e-03,  1.32100e-03, -1.03600e-04, -3.53700e-05],
                           [-8.51200e-03,  2.50900e-02, -2.27100e-03, -6.39000e-03, -9.95600e-04,  1.26000e-03,  3.23900e-04, -6.64000e-05],
                           [ 1.35000e-02, -1.07700e-03, -2.09800e-03, -1.06400e-03, -4.38900e-04,  1.65300e-04, -1.09800e-05,  4.06600e-06],
                           [-7.72300e-03,  1.63400e-02,  2.45600e-03, -2.65100e-03, -1.43900e-03,  3.12500e-04,  2.97000e-04, -3.76900e-05]])

# Reaction 8
chebyshev_reaction('gQOOHb (+ M) <=> gQOOH[O] (+ M)',
                   Tmin=180.0, Tmax=1500.0,
                   Pmin=(0.01, 'atm'), Pmax=(98.692, 'atm'),
                   coeffs=[[-3.61000e+00,  1.22600e+00, -3.54600e-01, -5.22900e-02,  2.84500e-03,  4.20500e-03,  3.06700e-04, -4.27600e-04],
                           [ 5.07700e+00,  9.87800e-01,  1.61100e-01,  1.80800e-02, -1.19000e-02, -2.87800e-03,  4.13200e-04,  1.35400e-04],
                           [ 2.29000e-01,  1.16200e-01,  1.48100e-02,  3.78100e-02,  1.00300e-03, -3.76300e-03, -2.79100e-04,  6.22000e-04],
                           [-3.00300e-01,  1.11700e-01, -2.08400e-02,  1.56500e-02,  5.42800e-03, -2.62100e-03, -1.53900e-03,  1.78900e-04],
                           [-1.93400e-01,  1.07100e-01, -1.32900e-02,  9.85700e-04,  4.76900e-03,  5.40300e-04, -7.67800e-04, -4.76900e-04],
                           [-3.64300e-02,  4.16100e-02, -1.09300e-02, -1.65200e-03,  2.79700e-03,  1.09400e-03,  1.35700e-04, -2.13600e-04],
                           [ 1.75300e-02,  8.03100e-03, -1.21800e-02, -1.99200e-03,  1.80700e-03,  5.79500e-04,  1.46400e-04,  5.34200e-05],
                           [ 1.78500e-03,  1.92100e-02, -9.26800e-03, -4.30400e-03,  7.41500e-04,  6.77700e-04,  7.52800e-05, -5.11900e-06],
                           [ 1.37600e-02, -9.76000e-04, -2.83900e-03, -1.63800e-03, -1.22500e-05,  1.21700e-04,  2.54000e-06,  2.51600e-05],
                           [-2.72700e-03,  1.48200e-02, -9.01200e-04, -2.46900e-03, -3.27200e-04,  2.55800e-04,  5.52200e-05, -3.18200e-05]])

# Reaction 9
chebyshev_reaction('O2 + gR (+ M) <=> gQOOH[O] (+ M)',
                   Tmin=180.0, Tmax=1500.0,
                   Pmin=(0.01, 'atm'), Pmax=(98.692, 'atm'),
                   coeffs=[[ 1.77900e+00, -3.32500e-01, -2.59100e-01, -4.69900e-02,  4.24600e-03,  8.10500e-03,  1.22900e-03, -1.13000e-03],
                           [ 1.28200e-01,  4.51400e-01,  4.56800e-02,  3.29700e-02, -1.12600e-02, -7.55600e-03, -1.69700e-04,  1.35200e-03],
                           [-4.12300e-01,  2.85200e-01,  1.60800e-02,  2.42000e-02, -7.84800e-04, -4.39100e-03, -9.72000e-04,  3.93800e-04],
                           [-2.71900e-01,  1.19600e-01, -1.33100e-02,  1.44100e-02,  7.64400e-03, -1.08300e-03, -1.52300e-03, -4.03200e-04],
                           [-1.07000e-01,  7.40100e-02, -1.34000e-02,  1.10900e-03,  4.68300e-03,  6.53600e-04, -1.86100e-04, -2.02300e-04],
                           [-6.44100e-03,  3.24300e-02, -1.51600e-02, -2.88700e-03,  3.09900e-03,  1.04800e-03,  3.95100e-05, -9.24300e-05],
                           [ 1.88500e-02,  1.10900e-02, -1.32300e-02, -3.27500e-03,  1.87100e-03,  8.48100e-04, -1.38000e-05, -6.13600e-05],
                           [-6.20100e-03,  2.15800e-02, -3.32400e-03, -4.19900e-03, -7.31700e-04,  3.38900e-04,  3.13300e-04,  1.05400e-04],
                           [ 1.54800e-02, -1.62800e-03, -4.66300e-03, -1.26800e-03,  8.33700e-04,  1.96500e-04, -2.17400e-04, -7.84600e-05],
                           [-8.80900e-03,  1.49000e-02,  3.05600e-03, -2.13100e-03, -1.07800e-03, -2.53500e-05,  1.84900e-04,  7.49900e-05]])
#  gRO2(+M) <=> gQOOHa(+M)                             1.000e+00 0.000     0.000
#      TCHEB/ 180.000   1500.000 /
#      PCHEB/ 0.010     98.692   /
#      CHEB/ 10 8/
#      CHEB/ -3.103e+00   5.874e-01    -1.340e-01   -1.986e-03   2.039e-03   /
#      CHEB/ 3.816e-04    1.968e-04    4.167e-05    8.725e+00    9.328e-01   /
#      CHEB/ -1.809e-01   -1.559e-02   2.287e-03    1.408e-03    4.012e-04   /
#      CHEB/ 5.145e-05    5.062e-01    4.526e-01    -2.783e-02   -2.616e-02  /
#      CHEB/ -3.218e-03   2.064e-03    5.996e-04    2.162e-05    -1.836e-01  /
#      CHEB/ 1.204e-01    3.964e-02    -1.257e-02   -8.031e-03   6.759e-04   /
#      CHEB/ 9.585e-04    1.246e-04    -9.567e-02   2.213e-02    2.026e-02   /
#      CHEB/ 7.195e-03    -6.534e-03   -1.876e-03   8.174e-04    3.476e-04   /
#      CHEB/ -1.341e-02   2.187e-02    -7.754e-03   1.204e-02    -1.049e-03  /
#      CHEB/ -2.794e-03   9.593e-06    4.320e-04    -1.011e-02   2.177e-02   /
#      CHEB/ -1.229e-02   5.931e-03    2.448e-03    -1.626e-03   -6.687e-04  /
#      CHEB/ 2.318e-04    -1.366e-02   1.386e-02    -6.706e-03   4.320e-04   /
#      CHEB/ 2.579e-03    -2.037e-04   -6.775e-04   -4.477e-05   -8.520e-03  /
#      CHEB/ 8.702e-03    -2.845e-03   -1.349e-03   1.495e-03    3.725e-04   /
#      CHEB/ -3.310e-04   -1.568e-04   -4.207e-03   5.859e-03    -1.104e-03  /
#      CHEB/ -1.367e-03   6.358e-04    3.827e-04    -7.556e-05   -1.173e-04  /
#  gQOOH[O](+M) <=> gQOOHa(+M)                         1.000e+00 0.000     0.000
#      TCHEB/ 180.000   1500.000 /
#      PCHEB/ 0.010     98.692   /
#      CHEB/ 10 8/
#      CHEB/ 2.171e+00    1.135e-01    -4.197e-01   -2.689e-02   1.249e-02   /
#      CHEB/ 5.640e-03    -5.070e-04   -8.659e-04   2.851e+00    1.459e+00   /
#      CHEB/ -4.101e-02   -4.778e-02   -1.249e-02   1.203e-03    2.628e-03   /
#      CHEB/ 4.971e-04    -2.117e-01   4.036e-01    9.900e-02    -5.019e-03  /
#      CHEB/ -1.070e-02   -2.825e-03   -1.162e-04   7.481e-04    -4.058e-01  /
#      CHEB/ 1.059e-01    5.843e-02    1.849e-02    -6.990e-03   -2.581e-03  /
#      CHEB/ -1.630e-04   6.744e-05    -1.857e-01   6.708e-02    7.458e-03   /
#      CHEB/ 1.774e-02    -1.661e-03   -2.826e-03   4.233e-04    2.456e-04   /
#      CHEB/ -4.873e-02   3.824e-02    -1.272e-02   7.810e-03    3.648e-03   /
#      CHEB/ -1.947e-03   -4.495e-04   4.141e-04    -2.279e-03   1.532e-02   /
#      CHEB/ -1.328e-02   -5.598e-05   4.035e-03    -8.807e-05   -8.001e-04  /
#      CHEB/ 6.499e-05    -8.160e-03   2.151e-02    -7.886e-03   -4.580e-03  /
#      CHEB/ 1.469e-03    1.098e-03    -2.358e-04   -2.318e-04   1.477e-02   /
#      CHEB/ -4.038e-03   -4.196e-03   -4.829e-04   3.990e-04    2.048e-04   /