units(length='cm', time='s', quantity='mol', act_energy='kcal/mol')

ideal_gas(name='gas',
          elements="H D T C Ci O Oi N Ne Ar He Si S F Cl Br I X",
          species="""propene3ol       OH               disub_c4ether
                     H2O              disub_epoxy      gQOOHa
                     propene1ol       gQOOHb           ipropylOOH
                     galdoxy          galkene          CH2O
                     O2               gRO2             gQOOHg
                     gR               galdol           monosub_c4ether
                     HO2              gQOOH[O]""",
          reactions='all',
          initial_state=state(temperature=300.0, pressure=OneAtm))

#-------------------------------------------------------------------------------
# Element data
#-------------------------------------------------------------------------------

element(symbol='Ci', atomic_mass=13.003)
element(symbol='D', atomic_mass=2.014)
element(symbol='Oi', atomic_mass=18.0)
element(symbol='T', atomic_mass=3.016)
element(symbol='X', atomic_mass=195.083)
#-------------------------------------------------------------------------------
# Species data
#-------------------------------------------------------------------------------

species(name='propene3ol',
        atoms='C:3 H:6 O:1',
        thermo=(NASA([10.00, 444.81],
                     [ 3.92769709E+00,  4.89977303E-03,  1.13094874E-04,
                      -2.59008187E-07,  1.86205760E-10, -1.67770688E+04,
                       9.90805416E+00]),
                NASA([444.81, 3000.00],
                     [ 2.61720343E+00,  3.01777872E-02, -1.76511625E-05,
                       5.14864061E-09, -5.91153761E-13, -1.67939693E+04,
                       1.36683107E+01])))

species(name='OH',
        atoms='H:1 O:1',
        thermo=(NASA([10.00, 984.14],
                     [ 3.49686242E+00,  1.83973160E-04, -9.97634499E-07,
                       1.56942783E-09, -6.10128175E-13,  3.41673934E+03,
                       1.48093120E+00]),
                NASA([984.14, 3000.00],
                     [ 3.45221464E+00, -2.95124034E-04,  7.39418622E-07,
                      -2.89309866E-10,  3.53041498E-14,  3.45751599E+03,
                       1.85813897E+00])))

species(name='disub_c4ether',
        atoms='C:4 H:8 O:2',
        thermo=(NASA([10.00, 413.50],
                     [ 3.78241323E+00,  1.89501763E-02,  8.65302396E-05,
                      -1.80580575E-07,  1.13656264E-10, -3.99539264E+04,
                       1.09982450E+01]),
                NASA([413.50, 3000.00],
                     [ 4.29420885E-01,  5.13851903E-02, -3.11292293E-05,
                       9.11498284E-09, -1.03192718E-12, -3.96766321E+04,
                       2.42134976E+01])))

species(name='H2O',
        atoms='H:2 O:1',
        thermo=(NASA([10.00, 773.84],
                     [ 4.00473541E+00, -2.39729134E-04,  8.11862955E-07,
                       1.47891862E-09, -1.19783539E-12, -3.03533807E+04,
                      -9.96254147E-02]),
                NASA([773.84, 3000.00],
                     [ 3.52133374E+00,  1.05377009E-03,  6.40722099E-07,
                      -3.86240235E-10,  5.49243294E-14, -3.02424794E+04,
                       2.34173094E+00])))

species(name='disub_epoxy',
        atoms='C:4 H:8 O:2',
        thermo=(NASA([10.00, 549.41],
                     [ 3.89863211E+00,  5.97532637E-03,  1.66685676E-04,
                      -3.10743768E-07,  1.78330192E-10, -3.65442643E+04,
                       1.13847308E+01]),
                NASA([549.41, 3000.00],
                     [-6.40277648E-01,  6.05960003E-02, -4.13427220E-05,
                       1.31555461E-08, -1.57685017E-12, -3.63711474E+04,
                       2.76005436E+01])))

species(name='gQOOHa',
        atoms='C:4 H:9 O:3',
        thermo=(NASA([10.00, 160.74],
                     [ 3.80808147E+00,  2.31043884E-02,  5.26945984E-04,
                      -3.11500696E-06,  6.03881958E-09, -2.64341043E+04,
                       1.17645316E+01]),
                NASA([160.74, 3000.00],
                     [ 2.90630300E+00,  6.50241173E-02, -4.60073244E-05,
                       1.51330930E-08, -1.87074267E-12, -2.64302797E+04,
                       1.36838819E+01])))

species(name='propene1ol',
        atoms='C:3 H:6 O:1',
        thermo=(NASA([10.00, 459.42],
                     [ 3.91245344E+00,  5.85800161E-03,  1.15412006E-04,
                      -2.68014417E-07,  1.91800131E-10, -1.86591962E+04,
                       8.14807684E+00]),
                NASA([459.42, 3000.00],
                     [ 3.14049093E+00,  2.95550898E-02, -1.73843684E-05,
                       5.11506211E-09, -5.92966137E-13, -1.87674187E+04,
                       9.32215170E+00])))

species(name='gQOOHb',
        atoms='C:4 H:9 O:3',
        thermo=(NASA([10.00, 1018.67],
                     [ 3.99028351E+00,  4.29665712E-02,  2.28338778E-05,
                      -5.67914439E-08,  2.29383258E-11, -2.17528747E+04,
                       1.20326731E+01]),
                NASA([1018.67, 3000.00],
                     [ 1.38304153E+01,  3.88527019E-02, -2.19473905E-05,
                       5.78719895E-09, -5.85097740E-13, -2.55489594E+04,
                      -4.44147388E+01])))

species(name='ipropylOOH',
        atoms='C:3 H:7 O:2',
        thermo=(NASA([10.00, 405.01],
                     [ 3.30075623E+00,  7.58672756E-02, -3.35754269E-04,
                       8.05972164E-07, -6.68864582E-10, -6.52500041E+02,
                       1.43372849E+01]),
                NASA([405.01, 3000.00],
                     [ 2.51742509E+00,  3.72760950E-02, -2.12450220E-05,
                       5.83593926E-09, -6.22110649E-13, -2.09092435E+02,
                       2.20991392E+01])))

species(name='galdoxy',
        atoms='C:4 H:7 O:2',
        thermo=(NASA([10.00, 209.62],
                     [ 3.82641108E+00,  1.84758886E-02,  3.43073800E-04,
                      -1.82817005E-06,  2.98516720E-09, -1.73625552E+04,
                       1.17972706E+01]),
                NASA([209.62, 3000.00],
                     [ 4.22049016E+00,  4.03370149E-02, -2.36129482E-05,
                       6.72979114E-09, -7.47862493E-13, -1.74436249E+04,
                       8.97211724E+00])))

species(name='galkene',
        atoms='C:4 H:8 O:1',
        thermo=(NASA([10.00, 383.47],
                     [ 3.84035604E+00,  1.20378740E-02,  1.87486319E-04,
                      -5.44759148E-07,  4.80711015E-10, -2.01482032E+04,
                       1.02570291E+01]),
                NASA([383.47, 3000.00],
                     [ 4.00413385E+00,  3.79025144E-02, -2.15435710E-05,
                       6.15213311E-09, -6.97446345E-13, -2.03634926E+04,
                       6.98052628E+00])))

species(name='CH2O',
        atoms='C:1 H:2 O:1',
        thermo=(NASA([10.00, 601.31],
                     [ 4.03190845E+00, -1.93233367E-03,  8.89743345E-06,
                       2.98105926E-09, -7.90813886E-12, -1.42276270E+04,
                       3.47574660E+00]),
                NASA([601.31, 3000.00],
                     [ 1.40134195E+00,  9.48858016E-03, -4.43088317E-06,
                       9.48452194E-10, -7.43790219E-14, -1.38013869E+04,
                       1.57423780E+01])))

species(name='O2',
        atoms='O:2',
        thermo=(NASA([10.00, 605.96],
                     [ 3.50743498E+00, -4.43860349E-04,  1.45938058E-06,
                       1.61509333E-09, -2.32050052E-12, -9.24756224E+02,
                       4.72183634E+00]),
                NASA([605.96, 3000.00],
                     [ 2.87462882E+00,  2.17840991E-03, -1.18262921E-06,
                       2.86910493E-10, -2.53297146E-14, -8.19517838E+02,
                       7.69331810E+00])))

species(name='gRO2',
        atoms='C:4 H:9 O:3',
        thermo=(NASA([10.00, 177.33],
                     [ 3.70632176E+00,  3.49733664E-02,  4.64036392E-04,
                      -3.18637835E-06,  6.38178607E-09, -2.70639276E+04,
                       1.24459269E+01]),
                NASA([177.33, 3000.00],
                     [ 4.82062697E+00,  5.17179689E-02, -3.18386818E-05,
                       9.52247045E-09, -1.10180288E-12, -2.71692982E+04,
                       7.14082953E+00])))

species(name='gQOOHg',
        atoms='C:4 H:9 O:3',
        thermo=(NASA([10.00, 475.03],
                     [ 3.42273720E+00,  4.98344215E-02,  6.47820920E-05,
                      -2.49842966E-07,  1.98636537E-10, -2.12824382E+04,
                       1.41578583E+01]),
                NASA([475.03, 3000.00],
                     [ 5.94049074E+00,  5.53778585E-02, -3.71708255E-05,
                       1.17540477E-08, -1.40812095E-12, -2.18233925E+04,
                       7.09201218E-01])))

species(name='gR',
        atoms='C:4 H:9 O:1',
        thermo=(NASA([10.00, 638.24],
                     [ 3.37074633E+00,  5.17529751E-02, -6.54872940E-05,
                       6.88084237E-08, -3.21569794E-11, -1.32860397E+04,
                       1.14339669E+01]),
                NASA([638.24, 3000.00],
                     [ 3.99410860E+00,  4.06314915E-02, -2.23932510E-05,
                       6.08356263E-09, -6.49884708E-13, -1.32186649E+04,
                       9.85769960E+00])))

species(name='galdol',
        atoms='C:4 H:8 O:2',
        thermo=(NASA([10.00, 506.68],
                     [ 3.85380874E+00,  9.21272695E-03,  1.86712348E-04,
                      -3.96417049E-07,  2.55528268E-10, -4.51997745E+04,
                       1.24312743E+01]),
                NASA([506.68, 3000.00],
                     [ 1.49710213E+00,  5.65979142E-02, -3.87709084E-05,
                       1.23682052E-08, -1.48287964E-12, -4.53303839E+04,
                       1.85531759E+01])))

species(name='monosub_c4ether',
        atoms='C:4 H:8 O:2',
        thermo=(NASA([10.00, 380.36],
                     [ 3.47743996E+00,  6.08051311E-02, -2.78518945E-04,
                       8.23182713E-07, -7.87158031E-10, -3.34781420E+04,
                       1.06415154E+01]),
                NASA([380.36, 3000.00],
                     [-1.09346901E+00,  5.35985968E-02, -3.21081420E-05,
                       9.20818293E-09, -1.01830294E-12, -3.27305820E+04,
                       3.35312368E+01])))

species(name='HO2',
        atoms='H:1 O:2',
        thermo=(NASA([10.00, 891.11],
                     [ 4.02887004E+00, -1.75769289E-03,  1.08726004E-05,
                      -1.13812972E-08,  3.90113097E-12,  4.95165001E+02,
                       4.69302008E+00]),
                NASA([891.11, 3000.00],
                     [ 3.06571044E+00,  4.28505005E-03, -2.19325920E-06,
                       5.58882699E-10, -5.61246669E-14,  5.98557610E+02,
                       8.84564156E+00])))

species(name='gQOOH[O]',
        atoms='C:4 H:9 O:3',
        thermo=(NASA([10.00, 535.23],
                     [ 3.83107445E+00,  1.02302002E-02,  2.29377261E-04,
                      -4.59095575E-07,  2.77765018E-10, -1.96676344E+04,
                       1.41034859E+01]),
                NASA([535.23, 3000.00],
                     [-4.19283096E-01,  7.69784620E-02, -5.57279000E-05,
                       1.81378295E-08, -2.18295635E-12, -1.97137477E+04,
                       2.72711816E+01])))

#-------------------------------------------------------------------------------
# Reaction data
#-------------------------------------------------------------------------------

# Reaction 1
chebyshev_reaction('gQOOH[O] (+ M) <=> gRO2 (+ M)',
                   Tmin=180.0, Tmax=1500.0,
                   Pmin=(0.01, 'atm'), Pmax=(98.692, 'atm'),
                   coeffs=[[ 4.52200e+00,  1.27100e+00, -1.75000e-01, -1.08800e-03,  7.20900e-03,  1.56300e-03, -7.43900e-04, -2.18600e-04],
                           [-6.03000e+00,  8.78800e-01,  3.70200e-02, -1.37200e-02, -8.01100e-04,  2.51400e-03, -1.26500e-04, -3.24500e-04],
                           [-4.55000e+00, -1.50200e-01,  1.49200e-02,  2.89500e-02,  2.94500e-03, -2.10500e-03, -9.62800e-04,  1.56100e-04],
                           [-2.45200e+00, -1.81500e-01, -5.23900e-02,  2.16000e-03,  7.20100e-03,  4.50200e-04, -9.81400e-04, -1.60000e-04],
                           [-1.11900e+00, -9.15300e-03, -1.03000e-02, -1.57900e-02, -2.66500e-03,  7.39100e-04,  5.44800e-04,  5.44200e-05],
                           [-4.48100e-01,  2.25000e-02,  2.78400e-02, -3.56400e-03, -5.05200e-03, -1.33600e-03,  3.69100e-04,  2.99600e-04],
                           [-1.34400e-01, -1.28100e-02,  8.93700e-03,  4.49900e-03,  5.28100e-04, -4.63300e-04, -3.20600e-04, -6.14100e-05],
                           [ 1.28800e-03, -1.48200e-02, -1.59400e-02, -1.56700e-03,  1.73000e-03,  1.38300e-03,  9.08100e-05, -2.52600e-04],
                           [ 3.74400e-02,  2.31600e-02, -1.28100e-02, -5.51900e-03, -1.22600e-03,  6.54500e-04,  4.97900e-04,  2.36200e-05],
                           [ 2.00900e-02,  4.20300e-02,  6.95800e-03, -7.95100e-04, -2.05400e-03, -8.48000e-04,  1.23600e-05,  1.51600e-04]])

# Reaction 2
chebyshev_reaction('gQOOHa (+ M) <=> gRO2 (+ M)',
                   Tmin=180.0, Tmax=1500.0,
                   Pmin=(0.01, 'atm'), Pmax=(98.692, 'atm'),
                   coeffs=[[ 3.08000e+00,  5.82300e-01, -4.78800e-02,  1.17700e-02,  1.42700e-03,  9.47500e-05, -1.76100e-04, -1.01000e-06],
                           [-1.94400e+00,  8.05600e-01, -1.46300e-02,  5.74700e-03,  5.44700e-03, -3.80600e-04, -1.14600e-04, -2.30000e-05],
                           [-3.41700e+00,  1.30500e-01,  7.60900e-02, -7.55900e-04,  1.40600e-03,  7.29600e-04, -8.02000e-05,  6.78600e-06],
                           [-2.24600e+00, -3.27500e-01,  6.04600e-02,  1.02900e-02, -2.08700e-03,  5.78600e-04,  2.51000e-04,  1.02400e-05],
                           [-1.20500e+00, -3.88700e-01, -2.23100e-02,  1.38500e-02,  2.48000e-04, -3.91500e-04,  2.95300e-04,  8.17100e-05],
                           [-4.36500e-01, -2.17300e-01, -7.16200e-02, -6.23600e-04,  3.30900e-03, -7.97700e-05, -6.15900e-05,  8.31400e-05],
                           [-2.97500e-02, -2.83700e-02, -5.54700e-02, -1.52200e-02,  1.07500e-03,  1.01000e-03, -1.40500e-04, -5.58700e-05],
                           [ 7.18500e-02,  7.43400e-02, -1.08000e-02, -1.40000e-02, -3.80100e-03,  7.53600e-04,  2.06200e-04, -1.13000e-04],
                           [ 8.35900e-02,  8.83300e-02,  2.05700e-02, -1.67000e-03, -4.96100e-03, -9.15400e-04,  3.34400e-04,  3.86700e-05],
                           [ 1.10000e-02,  5.46100e-02,  2.47200e-02,  8.41800e-03, -1.47600e-03, -1.84900e-03, -8.13600e-05,  1.84600e-04]])

# Reaction 3
chebyshev_reaction('gQOOHg (+ M) <=> gRO2 (+ M)',
                   Tmin=180.0, Tmax=1500.0,
                   Pmin=(0.01, 'atm'), Pmax=(98.692, 'atm'),
                   coeffs=[[ 3.21900e+00,  6.85000e-01, -2.45500e-02,  2.12300e-02, -1.00900e-03, -1.64900e-04,  8.32100e-05, -6.80100e-05],
                           [-3.51200e+00,  9.86200e-01,  1.69000e-02,  2.59600e-02,  9.54300e-04, -3.79000e-04,  9.47200e-05, -1.34400e-04],
                           [-3.90500e+00,  2.28300e-01,  9.01500e-02,  1.07200e-02,  2.52900e-03,  3.95700e-04, -1.82800e-04, -4.93300e-05],
                           [-2.60800e+00, -3.06800e-01,  5.40700e-02,  1.36300e-02,  2.05200e-03,  9.92900e-04, -1.64500e-04, -2.47100e-05],
                           [-1.26400e+00, -4.00200e-01, -4.29400e-02,  1.19600e-02,  3.86400e-03,  7.86700e-04,  1.52300e-04, -1.56200e-05],
                           [-3.89000e-01, -2.20800e-01, -9.23200e-02, -6.07700e-03,  5.00600e-03,  1.16200e-03,  2.97700e-04,  3.44100e-05],
                           [ 3.11500e-03, -1.71900e-02, -6.37300e-02, -2.21700e-02,  7.46800e-04,  1.96000e-03,  4.07900e-04,  2.61300e-05],
                           [ 9.83900e-02,  8.43900e-02, -6.03000e-03, -1.87700e-02, -5.71700e-03,  1.22300e-03,  6.50500e-04,  1.68600e-05],
                           [ 6.83300e-02,  8.60300e-02,  2.80700e-02, -1.71500e-03, -7.33300e-03, -1.17900e-03,  5.61400e-04,  1.52500e-04],
                           [ 1.69600e-03,  4.26500e-02,  2.64200e-02,  1.10200e-02, -2.75300e-03, -2.82000e-03, -1.35900e-04,  3.12000e-04]])

# Reaction 4
chebyshev_reaction('gQOOHb (+ M) <=> gRO2 (+ M)',
                   Tmin=180.0, Tmax=1500.0,
                   Pmin=(0.01, 'atm'), Pmax=(98.692, 'atm'),
                   coeffs=[[-1.39700e+00,  1.22700e+00,  2.51200e-02, -6.30600e-03, -3.83600e-03, -3.98200e-04,  2.05400e-04,  1.02400e-04],
                           [-1.56000e+00,  1.54200e+00,  8.99700e-02, -7.18900e-03, -4.13700e-03, -2.69300e-04,  3.00500e-04, -6.97200e-06],
                           [-3.48800e+00,  2.61800e-01,  5.87000e-03,  1.74000e-02,  3.66100e-03,  1.40100e-05, -1.05100e-04, -1.05500e-04],
                           [-2.14200e+00, -2.60200e-01, -7.51300e-02,  1.03900e-02,  6.93200e-03,  7.10500e-04, -2.57200e-04, -1.14000e-04],
                           [-1.06900e+00, -2.12800e-01, -5.99300e-02, -4.22400e-03,  1.35400e-03,  4.47700e-04, -4.42300e-05,  3.83900e-06],
                           [-3.89300e-01, -8.07300e-02, -1.72800e-02, -4.31600e-03, -2.54100e-03, -4.02000e-04, -2.79700e-06,  7.02000e-05],
                           [-6.76600e-02, -1.58100e-02, -2.53300e-03, -2.51600e-04, -1.59400e-03, -2.41500e-04, -4.48700e-05,  9.56500e-06],
                           [ 5.37700e-02,  1.77800e-02, -3.62500e-03, -1.81700e-04, -7.48500e-05,  3.04100e-04,  1.84000e-05, -3.32300e-05],
                           [ 4.08600e-02,  4.17200e-02, -2.72300e-03, -8.55800e-04,  1.25100e-04,  3.22000e-04,  3.81000e-05, -1.67600e-05],
                           [ 3.16400e-02,  3.82100e-02,  5.37800e-03, -1.21800e-03, -3.68700e-05,  4.00100e-05,  1.17200e-06, -4.67500e-06]])

# Reaction 5
chebyshev_reaction('O2 + gR (+ M) <=> gRO2 (+ M)',
                   Tmin=180.0, Tmax=1500.0,
                   Pmin=(0.01, 'atm'), Pmax=(98.692, 'atm'),
                   coeffs=[[ 1.15800e+01,  8.19400e-01, -9.23000e-02,  1.81000e-02, -5.30800e-03,  1.33600e-03, -3.88900e-05, -4.37000e-05],
                           [-4.13300e+00,  1.07300e+00, -2.13400e-02, -3.81000e-03,  4.49800e-04, -2.44500e-04, -4.18800e-05,  5.35400e-05],
                           [-2.66800e+00,  3.89700e-01,  5.97700e-02, -3.43900e-03, -2.35900e-04, -2.97400e-04,  1.60700e-05, -2.43100e-05],
                           [-1.57600e+00,  9.26700e-03,  4.20900e-02,  2.34200e-03,  9.43600e-04, -3.62600e-04,  3.86400e-05, -6.27800e-05],
                           [-8.02200e-01, -1.17200e-01,  8.62400e-03,  6.35300e-04,  1.50800e-03, -4.17000e-05,  4.24800e-05, -5.86400e-06],
                           [-3.05600e-01, -1.13100e-01, -1.02400e-02, -1.64100e-03,  6.19900e-04,  9.03900e-05,  4.82300e-05,  5.09500e-05],
                           [-3.78500e-02, -5.86900e-02, -1.56100e-02, -1.82900e-03, -1.18500e-04,  1.74300e-05, -1.29300e-05,  4.49000e-05],
                           [ 6.22600e-02, -4.08700e-04, -1.21200e-02, -1.19500e-03, -2.89600e-04,  5.61100e-06, -5.33000e-05, -1.14000e-05],
                           [ 6.28900e-02,  3.52000e-02, -3.55400e-03, -6.01900e-04, -2.50800e-04,  2.28900e-05, -1.55400e-05, -4.68400e-05],
                           [ 2.46200e-02,  4.07000e-02,  5.08500e-03,  5.60900e-05, -2.05100e-04, -2.33100e-05,  3.49800e-05, -2.92700e-05]])
#  gRO2(+M) <=> gQOOH[O](+M)                           1.000e+00 0.000     0.000
#      TCHEB/ 180.000   1500.000 /
#      PCHEB/ 0.010     98.692   /
#      CHEB/ 10 8/
#      CHEB/ -5.957e+00   1.271e+00    -1.750e-01   -1.088e-03   7.209e-03   /
#      CHEB/ 1.563e-03    -7.439e-04   -2.186e-04   1.558e+00    8.788e-01   /
#      CHEB/ 3.702e-02    -1.372e-02   -8.011e-04   2.514e-03    -1.265e-04  /
#      CHEB/ -3.245e-04   -4.377e+00   -1.502e-01   1.492e-02    2.895e-02   /
#      CHEB/ 2.945e-03    -2.105e-03   -9.628e-04   1.561e-04    -2.327e+00  /
#      CHEB/ -1.815e-01   -5.239e-02   2.160e-03    7.201e-03    4.502e-04   /
#      CHEB/ -9.814e-04   -1.600e-04   -1.066e+00   -9.153e-03   -1.030e-02  /
#      CHEB/ -1.579e-02   -2.665e-03   7.391e-04    5.448e-04    5.442e-05   /
#      CHEB/ -4.290e-01   2.250e-02    2.784e-02    -3.564e-03   -5.052e-03  /
#      CHEB/ -1.336e-03   3.691e-04    2.996e-04    -1.282e-01   -1.281e-02  /
#      CHEB/ 8.937e-03    4.499e-03    5.281e-04    -4.633e-04   -3.206e-04  /
#      CHEB/ -6.141e-05   3.206e-03    -1.482e-02   -1.594e-02   -1.567e-03  /
#      CHEB/ 1.730e-03    1.383e-03    9.081e-05    -2.526e-04   3.791e-02   /
#      CHEB/ 2.316e-02    -1.281e-02   -5.519e-03   -1.226e-03   6.545e-04   /
#      CHEB/ 4.979e-04    2.362e-05    2.006e-02    4.203e-02    6.958e-03   /
#      CHEB/ -7.951e-04   -2.054e-03   -8.480e-04   1.236e-05    1.516e-04   /

# Reaction 6
chebyshev_reaction('gQOOHa (+ M) <=> gQOOH[O] (+ M)',
                   Tmin=180.0, Tmax=1500.0,
                   Pmin=(0.01, 'atm'), Pmax=(98.692, 'atm'),
                   coeffs=[[-7.44100e+00,  3.16100e-01, -3.82400e-01,  3.73400e-02,  7.50100e-03, -8.34500e-05,  2.55800e-04, -5.37000e-04],
                           [ 1.18200e+00,  1.50700e+00,  1.32600e-01, -4.05700e-02,  7.53400e-03,  1.84000e-03, -9.78600e-04,  3.72500e-04],
                           [-4.65200e+00, -1.26200e-01,  9.15500e-02,  4.67200e-02,  9.73500e-04, -2.84900e-03, -1.07500e-03,  2.39400e-04],
                           [-2.53900e+00, -3.69000e-01, -3.73100e-02,  2.50800e-02,  5.22700e-03, -3.75300e-04, -3.03500e-04, -1.28300e-04],
                           [-1.15800e+00, -1.70100e-01, -4.82900e-02, -2.82700e-03, -1.36300e-03, -5.31800e-04,  1.25000e-03,  2.25100e-04],
                           [-4.52100e-01, -4.34600e-02, -1.93000e-02, -7.73000e-03, -1.73200e-03, -1.31400e-03,  2.82400e-04,  3.76600e-04],
                           [-1.26200e-01, -5.50100e-03, -1.29900e-02, -9.34200e-03,  8.83900e-04,  8.31900e-04, -4.99100e-04, -1.90700e-04],
                           [ 1.07800e-02,  1.86000e-02, -7.88700e-03, -1.11500e-02, -2.41300e-03,  2.08400e-03,  3.72600e-04, -3.74900e-04],
                           [ 4.16800e-02,  4.95900e-02,  8.57300e-03, -4.71200e-03, -5.75600e-03, -3.50900e-04,  8.32000e-04,  1.19700e-04],
                           [ 2.10200e-02,  5.01900e-02,  2.16900e-02,  7.22900e-03, -3.07000e-03, -2.56000e-03, -9.95300e-05,  3.35900e-04]])

# Reaction 7
chebyshev_reaction('gQOOHg (+ M) <=> gQOOH[O] (+ M)',
                   Tmin=180.0, Tmax=1500.0,
                   Pmin=(0.01, 'atm'), Pmax=(98.692, 'atm'),
                   coeffs=[[-5.05800e+00,  4.43200e-01, -2.61800e-01, -8.10100e-03,  9.56500e-03,  4.99000e-03, -5.61600e-04, -9.45400e-04],
                           [-2.96100e+00,  1.48300e+00,  1.76100e-01,  2.43000e-02, -1.19300e-02, -6.62400e-04,  1.15300e-03,  1.03500e-04],
                           [-4.65600e+00, -2.45000e-01,  9.98500e-02,  6.52800e-02,  9.01200e-03, -5.53900e-03, -2.21800e-03,  6.34000e-04],
                           [-2.61900e+00, -3.89000e-01, -3.74500e-02,  1.02000e-02,  1.03700e-02,  2.67300e-03, -9.10600e-04, -3.89900e-04],
                           [-1.13200e+00, -1.72400e-01, -4.59300e-02, -1.39100e-02, -2.67500e-03,  2.54400e-03,  1.45100e-03, -7.44300e-05],
                           [-3.92900e-01, -3.45500e-02, -3.00500e-02, -8.20200e-03, -2.36400e-03, -5.67700e-04,  7.48800e-04,  3.31200e-04],
                           [-1.00700e-01,  1.72900e-02, -2.70400e-02, -1.00600e-02,  1.70900e-03,  9.10100e-04, -7.12500e-05, -1.76100e-05],
                           [ 5.69700e-03,  3.46700e-02, -1.15200e-02, -1.56200e-02, -2.35200e-03,  2.36700e-03,  6.84100e-04, -1.80700e-04],
                           [ 2.14900e-02,  5.23600e-02,  9.71200e-03, -7.09800e-03, -7.44300e-03, -3.48400e-04,  1.06400e-03,  2.17500e-04],
                           [ 1.33500e-02,  3.84100e-02,  2.26600e-02,  7.30400e-03, -4.40700e-03, -3.36700e-03, -1.31300e-04,  4.64900e-04]])

# Reaction 8
chebyshev_reaction('gQOOHb (+ M) <=> gQOOH[O] (+ M)',
                   Tmin=180.0, Tmax=1500.0,
                   Pmin=(0.01, 'atm'), Pmax=(98.692, 'atm'),
                   coeffs=[[-9.35700e+00,  1.19500e+00, -1.74700e-01, -4.36200e-02,  2.68600e-04,  4.23400e-03,  5.29900e-04, -4.33700e-04],
                           [-1.56100e+00,  1.84200e+00,  2.49300e-01,  9.71800e-03, -1.25200e-02, -2.12900e-03,  3.37000e-04,  3.54100e-04],
                           [-4.03200e+00, -3.20800e-01, -7.25500e-02,  6.71300e-02,  1.85700e-02, -1.97400e-03, -2.71200e-03, -2.83400e-04],
                           [-2.13700e+00, -2.97100e-01, -1.50600e-01, -6.87200e-03,  1.04800e-02,  2.71900e-03, -4.65700e-04, -2.74400e-04],
                           [-9.48900e-01,  3.99600e-02, -2.33400e-02, -2.44100e-02, -8.59900e-03,  2.06300e-05,  1.21600e-03,  2.90200e-04],
                           [-4.11100e-01,  7.24200e-02,  4.99600e-02, -1.55600e-03, -7.80500e-03, -2.12500e-03,  3.45600e-04,  3.11000e-04],
                           [-1.70300e-01, -8.40900e-03,  2.35800e-02,  9.42700e-03,  1.09700e-03, -4.44500e-04, -4.34700e-04, -1.23300e-04],
                           [-3.37600e-02, -4.12300e-02, -1.24300e-02, -2.90600e-04,  3.25100e-03,  1.63200e-03,  2.04800e-05, -2.45400e-04],
                           [ 1.54700e-02,  1.12200e-02, -2.14600e-02, -6.41600e-03, -7.18900e-04,  8.96500e-04,  5.49000e-04,  3.80400e-05],
                           [ 2.61000e-02,  3.70600e-02,  3.73700e-03, -5.05500e-03, -1.95000e-03, -7.41600e-04,  3.81800e-05,  1.73500e-04]])

# Reaction 9
chebyshev_reaction('O2 + gR (+ M) <=> gQOOH[O] (+ M)',
                   Tmin=180.0, Tmax=1500.0,
                   Pmin=(0.01, 'atm'), Pmax=(98.692, 'atm'),
                   coeffs=[[ 4.35700e+00,  1.28400e+00, -2.95600e-01, -1.00200e-01, -6.51600e-03,  2.01100e-02,  4.48100e-03, -3.57700e-03],
                           [-4.89200e+00,  5.57500e-01,  1.88000e-01,  1.03400e-01,  1.60500e-03, -2.15300e-02, -5.33200e-03,  4.25600e-03],
                           [-3.03700e+00, -1.71900e-02,  5.93400e-03,  2.40100e-02,  1.33300e-02, -1.71600e-04, -1.17100e-03, -7.23500e-04],
                           [-1.47600e+00, -9.32000e-03, -3.55600e-02, -2.35400e-02,  3.96200e-03,  3.75600e-03,  5.90600e-04, -6.21000e-04],
                           [-6.49700e-01,  9.46300e-02,  3.18000e-02, -2.19000e-02, -8.12200e-03,  7.97200e-05,  1.24000e-03,  2.86800e-04],
                           [-2.91500e-01,  4.59000e-02,  5.66500e-02,  2.96100e-03, -5.88300e-03, -2.24000e-03,  1.50700e-04,  3.68100e-04],
                           [-1.30100e-01, -3.76900e-02,  1.52900e-02,  1.21700e-02,  1.64800e-03, -7.33500e-04, -5.24700e-04, -2.27400e-05],
                           [-2.28700e-02, -5.49400e-02, -2.38900e-02,  8.39600e-04,  3.12600e-03,  1.55400e-03,  3.67300e-05, -2.37900e-04],
                           [ 2.40300e-02,  2.75100e-04, -2.41800e-02, -6.51500e-03, -1.07700e-03,  8.00300e-04,  5.74400e-04,  6.53200e-05],
                           [ 3.52000e-02,  3.52200e-02,  1.42400e-04, -3.85200e-03, -1.92000e-03, -6.58600e-04, -1.48400e-05,  9.71400e-05]])
#  gRO2(+M) <=> gQOOHa(+M)                             1.000e+00 0.000     0.000
#      TCHEB/ 180.000   1500.000 /
#      PCHEB/ 0.010     98.692   /
#      CHEB/ 10 8/
#      CHEB/ 1.921e+00    5.823e-01    -4.788e-02   1.177e-02    1.427e-03   /
#      CHEB/ 9.475e-05    -1.761e-04   -1.010e-06   -1.056e+00   8.056e-01   /
#      CHEB/ -1.463e-02   5.747e-03    5.447e-03    -3.806e-04   -1.146e-04  /
#      CHEB/ -2.300e-05   -3.255e+00   1.305e-01    7.609e-02    -7.559e-04  /
#      CHEB/ 1.406e-03    7.296e-04    -8.020e-05   6.786e-06    -2.172e+00  /
#      CHEB/ -3.275e-01   6.046e-02    1.029e-02    -2.087e-03   5.786e-04   /
#      CHEB/ 2.510e-04    1.024e-05    -1.177e+00   -3.887e-01   -2.231e-02  /
#      CHEB/ 1.385e-02    2.480e-04    -3.915e-04   2.953e-04    8.171e-05   /
#      CHEB/ -4.267e-01   -2.173e-01   -7.162e-02   -6.236e-04   3.309e-03   /
#      CHEB/ -7.977e-05   -6.159e-05   8.314e-05    -2.684e-02   -2.837e-02  /
#      CHEB/ -5.547e-02   -1.522e-02   1.075e-03    1.010e-03    -1.405e-04  /
#      CHEB/ -5.587e-05   7.248e-02    7.434e-02    -1.080e-02   -1.400e-02  /
#      CHEB/ -3.801e-03   7.536e-04    2.062e-04    -1.130e-04   8.358e-02   /
#      CHEB/ 8.833e-02    2.057e-02    -1.670e-03   -4.961e-03   -9.154e-04  /
#      CHEB/ 3.344e-04    3.867e-05    1.088e-02    5.461e-02    2.472e-02   /
#      CHEB/ 8.418e-03    -1.476e-03   -1.849e-03   -8.136e-05   1.846e-04   /
#  gQOOH[O](+M) <=> gQOOHa(+M)                         1.000e+00 0.000     0.000
#      TCHEB/ 180.000   1500.000 /
#      PCHEB/ 0.010     98.692   /
#      CHEB/ 10 8/
#      CHEB/ 1.878e+00    3.161e-01    -3.824e-01   3.734e-02    7.501e-03   /
#      CHEB/ -8.345e-05   2.558e-04    -5.370e-04   -5.518e+00   1.507e+00   /
#      CHEB/ 1.326e-01    -4.057e-02   7.534e-03    1.840e-03    -9.786e-04  /
#      CHEB/ 3.725e-04    -4.663e+00   -1.262e-01   9.155e-02    4.672e-02   /
#      CHEB/ 9.735e-04    -2.849e-03   -1.075e-03   2.394e-04    -2.590e+00  /
#      CHEB/ -3.690e-01   -3.731e-02   2.508e-02    5.227e-03    -3.753e-04  /
#      CHEB/ -3.035e-04   -1.283e-04   -1.183e+00   -1.701e-01   -4.829e-02  /
#      CHEB/ -2.827e-03   -1.363e-03   -5.318e-04   1.250e-03    2.251e-04   /
#      CHEB/ -4.613e-01   -4.346e-02   -1.930e-02   -7.730e-03   -1.732e-03  /
#      CHEB/ -1.314e-03   2.824e-04    3.766e-04    -1.295e-01   -5.501e-03  /
#      CHEB/ -1.299e-02   -9.342e-03   8.839e-04    8.319e-04    -4.991e-04  /
#      CHEB/ -1.907e-04   9.497e-03    1.860e-02    -7.887e-03   -1.115e-02  /
#      CHEB/ -2.413e-03   2.084e-03    3.726e-04    -3.749e-04   4.121e-02   /
#      CHEB/ 4.959e-02    8.573e-03    -4.712e-03   -5.756e-03   -3.509e-04  /