units(length='cm', time='s', quantity='mol', act_energy='kcal/mol')

ideal_gas(name='gas',
          elements="H D T C Ci O Oi N Ne Ar He Si S F Cl Br I X",
          species="""propene3ol       OH               disub_c4ether
                     H2O              disub_epoxy      gQOOHa
                     propene1ol       gQOOHb           ipropylOOH
                     galdoxy          galkene          CH2O
                     O2               gRO2             gQOOHg
                     gR               galdol           monosub_c4ether
                     HO2              gQOOH[O]""",
          reactions='all',
          initial_state=state(temperature=300.0, pressure=OneAtm))

#-------------------------------------------------------------------------------
# Element data
#-------------------------------------------------------------------------------

element(symbol='Ci', atomic_mass=13.003)
element(symbol='D', atomic_mass=2.014)
element(symbol='Oi', atomic_mass=18.0)
element(symbol='T', atomic_mass=3.016)
element(symbol='X', atomic_mass=195.083)
#-------------------------------------------------------------------------------
# Species data
#-------------------------------------------------------------------------------

species(name='propene3ol',
        atoms='C:3 H:6 O:1',
        thermo=(NASA([10.00, 444.81],
                     [ 3.92769709E+00,  4.89977303E-03,  1.13094874E-04,
                      -2.59008187E-07,  1.86205760E-10, -1.48649175E+04,
                       9.90805416E+00]),
                NASA([444.81, 3000.00],
                     [ 2.61720343E+00,  3.01777872E-02, -1.76511625E-05,
                       5.14864061E-09, -5.91153761E-13, -1.48818180E+04,
                       1.36683107E+01])))

species(name='OH',
        atoms='H:1 O:1',
        thermo=(NASA([10.00, 984.14],
                     [ 3.49686242E+00,  1.83973160E-04, -9.97634499E-07,
                       1.56942783E-09, -6.10128175E-13,  3.41673934E+03,
                       1.48093120E+00]),
                NASA([984.14, 3000.00],
                     [ 3.45221464E+00, -2.95124034E-04,  7.39418622E-07,
                      -2.89309866E-10,  3.53041498E-14,  3.45751599E+03,
                       1.85813897E+00])))

species(name='disub_c4ether',
        atoms='C:4 H:8 O:2',
        thermo=(NASA([10.00, 413.50],
                     [ 3.78241323E+00,  1.89501763E-02,  8.65302396E-05,
                      -1.80580575E-07,  1.13656264E-10, -3.68199836E+04,
                       1.09982450E+01]),
                NASA([413.50, 3000.00],
                     [ 4.29420885E-01,  5.13851903E-02, -3.11292293E-05,
                       9.11498284E-09, -1.03192718E-12, -3.65426892E+04,
                       2.42134976E+01])))

species(name='H2O',
        atoms='H:2 O:1',
        thermo=(NASA([10.00, 773.84],
                     [ 4.00473541E+00, -2.39729134E-04,  8.11862955E-07,
                       1.47891862E-09, -1.19783539E-12, -3.03533807E+04,
                      -9.96254147E-02]),
                NASA([773.84, 3000.00],
                     [ 3.52133374E+00,  1.05377009E-03,  6.40722099E-07,
                      -3.86240235E-10,  5.49243294E-14, -3.02424794E+04,
                       2.34173094E+00])))

species(name='disub_epoxy',
        atoms='C:4 H:8 O:2',
        thermo=(NASA([10.00, 549.41],
                     [ 3.89863211E+00,  5.97532637E-03,  1.66685676E-04,
                      -3.10743768E-07,  1.78330192E-10, -3.75649505E+04,
                       1.13847308E+01]),
                NASA([549.41, 3000.00],
                     [-6.40277648E-01,  6.05960003E-02, -4.13427220E-05,
                       1.31555461E-08, -1.57685017E-12, -3.73918336E+04,
                       2.76005436E+01])))

species(name='gQOOHa',
        atoms='C:4 H:9 O:3',
        thermo=(NASA([10.00, 160.74],
                     [ 3.80808147E+00,  2.31043884E-02,  5.26945984E-04,
                      -3.11500696E-06,  6.03881958E-09, -2.63817178E+04,
                       1.17645316E+01]),
                NASA([160.74, 3000.00],
                     [ 2.90630300E+00,  6.50241173E-02, -4.60073244E-05,
                       1.51330930E-08, -1.87074267E-12, -2.63778932E+04,
                       1.36838819E+01])))

species(name='propene1ol',
        atoms='C:3 H:6 O:1',
        thermo=(NASA([10.00, 459.42],
                     [ 3.91245344E+00,  5.85800161E-03,  1.15412006E-04,
                      -2.68014417E-07,  1.91800131E-10, -2.01306754E+04,
                       8.14807684E+00]),
                NASA([459.42, 3000.00],
                     [ 3.14049093E+00,  2.95550898E-02, -1.73843684E-05,
                       5.11506211E-09, -5.92966137E-13, -2.02388980E+04,
                       9.32215170E+00])))

species(name='gQOOHb',
        atoms='C:4 H:9 O:3',
        thermo=(NASA([10.00, 1018.67],
                     [ 3.99028351E+00,  4.29665712E-02,  2.28338778E-05,
                      -5.67914439E-08,  2.29383258E-11, -2.20783927E+04,
                       1.20326731E+01]),
                NASA([1018.67, 3000.00],
                     [ 1.38304153E+01,  3.88527019E-02, -2.19473905E-05,
                       5.78719895E-09, -5.85097740E-13, -2.58744774E+04,
                      -4.44147388E+01])))

species(name='ipropylOOH',
        atoms='C:3 H:7 O:2',
        thermo=(NASA([10.00, 405.01],
                     [ 3.30075623E+00,  7.58672756E-02, -3.35754269E-04,
                       8.05972164E-07, -6.68864582E-10, -1.03464473E+03,
                       1.43372849E+01]),
                NASA([405.01, 3000.00],
                     [ 2.51742509E+00,  3.72760950E-02, -2.12450220E-05,
                       5.83593926E-09, -6.22110649E-13, -5.91237119E+02,
                       2.20991392E+01])))

species(name='galdoxy',
        atoms='C:4 H:7 O:2',
        thermo=(NASA([10.00, 209.62],
                     [ 3.82641108E+00,  1.84758886E-02,  3.43073800E-04,
                      -1.82817005E-06,  2.98516720E-09, -1.74406232E+04,
                       1.17972706E+01]),
                NASA([209.62, 3000.00],
                     [ 4.22049016E+00,  4.03370149E-02, -2.36129482E-05,
                       6.72979114E-09, -7.47862493E-13, -1.75216930E+04,
                       8.97211724E+00])))

species(name='galkene',
        atoms='C:4 H:8 O:1',
        thermo=(NASA([10.00, 383.47],
                     [ 3.84035604E+00,  1.20378740E-02,  1.87486319E-04,
                      -5.44759148E-07,  4.80711015E-10, -2.24600478E+04,
                       1.02570291E+01]),
                NASA([383.47, 3000.00],
                     [ 4.00413385E+00,  3.79025144E-02, -2.15435710E-05,
                       6.15213311E-09, -6.97446345E-13, -2.26753371E+04,
                       6.98052628E+00])))

species(name='CH2O',
        atoms='C:1 H:2 O:1',
        thermo=(NASA([10.00, 601.31],
                     [ 4.03190845E+00, -1.93233367E-03,  8.89743345E-06,
                       2.98105926E-09, -7.90813886E-12, -1.42276270E+04,
                       3.47574660E+00]),
                NASA([601.31, 3000.00],
                     [ 1.40134195E+00,  9.48858016E-03, -4.43088317E-06,
                       9.48452194E-10, -7.43790219E-14, -1.38013869E+04,
                       1.57423780E+01])))

species(name='O2',
        atoms='O:2',
        thermo=(NASA([10.00, 605.96],
                     [ 3.50743498E+00, -4.43860349E-04,  1.45938058E-06,
                       1.61509333E-09, -2.32050052E-12, -9.24756224E+02,
                       4.72183634E+00]),
                NASA([605.96, 3000.00],
                     [ 2.87462882E+00,  2.17840991E-03, -1.18262921E-06,
                       2.86910493E-10, -2.53297146E-14, -8.19517838E+02,
                       7.69331810E+00])))

species(name='gRO2',
        atoms='C:4 H:9 O:3',
        thermo=(NASA([10.00, 177.33],
                     [ 3.70632176E+00,  3.49733664E-02,  4.64036392E-04,
                      -3.18637835E-06,  6.38178607E-09, -2.72494116E+04,
                       1.24459269E+01]),
                NASA([177.33, 3000.00],
                     [ 4.82062697E+00,  5.17179689E-02, -3.18386818E-05,
                       9.52247045E-09, -1.10180288E-12, -2.73547822E+04,
                       7.14082953E+00])))

species(name='gQOOHg',
        atoms='C:4 H:9 O:3',
        thermo=(NASA([10.00, 475.03],
                     [ 3.42273720E+00,  4.98344215E-02,  6.47820920E-05,
                      -2.49842966E-07,  1.98636537E-10, -2.21932677E+04,
                       1.41578583E+01]),
                NASA([475.03, 3000.00],
                     [ 5.94049074E+00,  5.53778585E-02, -3.71708255E-05,
                       1.17540477E-08, -1.40812095E-12, -2.27342220E+04,
                       7.09201218E-01])))

species(name='gR',
        atoms='C:4 H:9 O:1',
        thermo=(NASA([10.00, 638.24],
                     [ 3.37074633E+00,  5.17529751E-02, -6.54872940E-05,
                       6.88084237E-08, -3.21569794E-11, -9.21167553E+03,
                       1.14339669E+01]),
                NASA([638.24, 3000.00],
                     [ 3.99410860E+00,  4.06314915E-02, -2.23932510E-05,
                       6.08356263E-09, -6.49884708E-13, -9.14430082E+03,
                       9.85769960E+00])))

species(name='galdol',
        atoms='C:4 H:8 O:2',
        thermo=(NASA([10.00, 506.68],
                     [ 3.85380874E+00,  9.21272695E-03,  1.86712348E-04,
                      -3.96417049E-07,  2.55528268E-10, -4.63118681E+04,
                       1.24312743E+01]),
                NASA([506.68, 3000.00],
                     [ 1.49710213E+00,  5.65979142E-02, -3.87709084E-05,
                       1.23682052E-08, -1.48287964E-12, -4.64424775E+04,
                       1.85531759E+01])))

species(name='monosub_c4ether',
        atoms='C:4 H:8 O:2',
        thermo=(NASA([10.00, 380.36],
                     [ 3.47743996E+00,  6.08051311E-02, -2.78518945E-04,
                       8.23182713E-07, -7.87158031E-10, -3.09529099E+04,
                       1.06415154E+01]),
                NASA([380.36, 3000.00],
                     [-1.09346901E+00,  5.35985968E-02, -3.21081420E-05,
                       9.20818293E-09, -1.01830294E-12, -3.02053499E+04,
                       3.35312368E+01])))

species(name='HO2',
        atoms='H:1 O:2',
        thermo=(NASA([10.00, 891.11],
                     [ 4.02887004E+00, -1.75769289E-03,  1.08726004E-05,
                      -1.13812972E-08,  3.90113097E-12,  4.95165001E+02,
                       4.69302008E+00]),
                NASA([891.11, 3000.00],
                     [ 3.06571044E+00,  4.28505005E-03, -2.19325920E-06,
                       5.58882699E-10, -5.61246669E-14,  5.98557610E+02,
                       8.84564156E+00])))

species(name='gQOOH[O]',
        atoms='C:4 H:9 O:3',
        thermo=(NASA([10.00, 535.23],
                     [ 3.83107445E+00,  1.02302002E-02,  2.29377261E-04,
                      -4.59095575E-07,  2.77765018E-10, -1.76113562E+04,
                       1.41034859E+01]),
                NASA([535.23, 3000.00],
                     [-4.19283096E-01,  7.69784620E-02, -5.57279000E-05,
                       1.81378295E-08, -2.18295635E-12, -1.76574696E+04,
                       2.72711816E+01])))

#-------------------------------------------------------------------------------
# Reaction data
#-------------------------------------------------------------------------------

# Reaction 1
chebyshev_reaction('gQOOH[O] (+ M) <=> gRO2 (+ M)',
                   Tmin=180.0, Tmax=1500.0,
                   Pmin=(0.01, 'atm'), Pmax=(98.692, 'atm'),
                   coeffs=[[ 5.33900e+00,  2.02700e+00, -1.62500e-02, -5.92600e-03, -2.72300e-03, -6.14000e-04, -2.76200e-06,  3.77700e-05],
                           [-5.76100e+00,  1.01600e-01,  4.51700e-03,  4.68400e-03,  9.75500e-05, -2.36300e-04, -1.01200e-04, -2.97700e-05],
                           [-3.05400e+00,  4.52600e-02, -1.11300e-02, -4.25800e-03, -2.35400e-03, -5.96500e-04, -2.40900e-05,  3.93500e-05],
                           [-1.54200e+00,  1.91900e-02, -1.66000e-03, -1.48300e-03, -8.77000e-04, -2.08900e-04,  8.83900e-07,  3.30800e-05],
                           [-7.94600e-01, -1.37300e-02,  1.37400e-03, -9.11800e-04, -2.97300e-04, -4.98800e-06,  2.58300e-05,  4.05400e-05],
                           [-4.81100e-01, -3.43500e-02,  3.75500e-03,  5.79400e-04,  2.95600e-04,  1.21200e-04, -3.07200e-06,  1.67300e-05],
                           [-2.02500e-01, -5.03900e-02, -1.97500e-03, -5.95200e-04, -7.28700e-05,  9.54100e-05,  1.95400e-05,  2.07900e-05],
                           [-1.12400e-01, -4.41100e-02, -3.55700e-03,  2.75500e-04,  9.07000e-05,  6.99000e-05, -4.52200e-06, -1.23600e-07],
                           [-5.16500e-02, -3.16300e-02, -6.95600e-03, -2.76900e-04, -9.14700e-05,  4.30000e-06,  7.11200e-06, -1.18000e-06],
                           [ 1.51500e-02, -1.57000e-02, -9.04900e-03, -1.37200e-03, -3.58700e-04, -7.32100e-05,  1.70500e-05,  1.21600e-06]])

# Reaction 2
chebyshev_reaction('gQOOHa (+ M) <=> gRO2 (+ M)',
                   Tmin=180.0, Tmax=1500.0,
                   Pmin=(0.01, 'atm'), Pmax=(98.692, 'atm'),
                   coeffs=[[-2.51300e+00,  1.26100e+00, -1.23700e-01, -9.35300e-03,  4.44500e-03,  1.41600e-03, -7.43500e-04,  1.25700e-04],
                           [ 3.54600e+00,  1.73100e+00, -2.90600e-02, -4.85500e-02,  1.28600e-02, -1.83300e-04, -3.32100e-04,  1.86100e-04],
                           [-2.10300e+00,  5.43000e-01,  1.26600e-01,  5.49600e-04, -7.05300e-03, -4.75200e-04,  9.93500e-04,  2.03000e-05],
                           [-1.50300e+00, -1.85800e-01,  1.14100e-01,  4.08700e-02, -8.69500e-03, -2.43400e-03,  9.25700e-04,  4.48300e-05],
                           [-9.13300e-01, -3.39500e-01,  2.86900e-02,  3.25400e-02,  2.78000e-03, -1.14100e-03, -6.09300e-04, -4.04000e-05],
                           [-5.04300e-01, -2.23900e-01, -3.12300e-02,  6.75300e-03,  6.90800e-03,  1.96200e-03, -9.87500e-04, -2.70200e-04],
                           [-1.97100e-01, -1.12400e-01, -3.30900e-02, -1.01600e-02,  3.11100e-03,  2.30500e-03,  4.14500e-05, -1.81200e-04],
                           [-1.00600e-01, -4.45900e-02, -2.02700e-02, -7.49700e-03, -2.51800e-03,  5.30400e-04,  7.33800e-04,  1.38300e-04],
                           [-2.49900e-02, -1.80600e-02, -5.59400e-03, -1.73800e-03, -3.14400e-03, -1.16500e-03,  4.35800e-04,  2.75300e-04],
                           [ 2.72400e-02, -4.04800e-03, -1.16300e-03,  1.70600e-03, -7.23900e-04, -1.38700e-03, -1.84800e-04,  1.28600e-04]])

# Reaction 3
chebyshev_reaction('gQOOHg (+ M) <=> gRO2 (+ M)',
                   Tmin=180.0, Tmax=1500.0,
                   Pmin=(0.01, 'atm'), Pmax=(98.692, 'atm'),
                   coeffs=[[ 3.04800e+00,  6.25000e-01, -2.37700e-02,  6.91200e-03,  6.31100e-04, -3.61700e-04,  2.99600e-05,  9.29300e-05],
                           [-1.01500e+00,  1.01600e+00, -6.07600e-03,  7.22800e-03,  2.05600e-03, -6.79700e-04,  4.17700e-05,  1.18900e-04],
                           [-2.49600e+00,  4.77700e-01,  6.79700e-02, -5.55800e-04,  2.01100e-03, -1.76300e-04, -9.23600e-05, -1.33100e-05],
                           [-1.89000e+00, -3.15700e-02,  9.30600e-02,  3.59900e-03,  1.76400e-04,  3.88200e-04, -2.03200e-04, -1.30100e-04],
                           [-1.13600e+00, -2.83100e-01,  4.79900e-02,  1.38500e-02, -6.55000e-04,  2.71500e-04, -1.64100e-04, -1.49900e-04],
                           [-5.51500e-01, -2.72200e-01, -1.86600e-02,  1.48400e-02,  1.23600e-03, -2.41800e-04, -8.52100e-05, -4.24800e-05],
                           [-1.55400e-01, -1.39000e-01, -5.08800e-02,  2.94100e-03,  3.25200e-03, -1.38500e-04, -6.20700e-05,  9.56500e-05],
                           [-4.16600e-02, -2.15000e-02, -3.67400e-02, -1.01600e-02,  2.04500e-03,  7.15100e-04,  3.87000e-05,  1.18200e-04],
                           [ 3.61700e-03,  2.46700e-02, -4.25400e-03, -1.23700e-02, -1.69000e-03,  1.21900e-03,  3.10200e-04,  6.53700e-06],
                           [ 2.33500e-02,  1.69100e-02,  1.47200e-02, -3.65300e-03, -4.01100e-03,  5.37000e-04,  4.93300e-04, -9.91700e-05]])

# Reaction 4
chebyshev_reaction('gQOOHb (+ M) <=> gRO2 (+ M)',
                   Tmin=180.0, Tmax=1500.0,
                   Pmin=(0.01, 'atm'), Pmax=(98.692, 'atm'),
                   coeffs=[[-4.04500e+00,  2.74500e+00, -2.99900e-01, -5.63200e-02,  4.73100e-02,  3.92600e-03, -6.15700e-03, -3.18900e-04],
                           [-2.59100e+00, -6.95200e-01,  3.52500e-01,  8.64800e-02, -3.05200e-02,  1.01800e-04,  4.64800e-03, -2.40700e-04],
                           [-2.64600e+00,  1.86000e-02,  1.17300e-02,  1.09600e-02, -1.45100e-03, -5.85400e-04,  1.24000e-03,  1.99000e-04],
                           [-1.31500e+00,  4.27900e-02,  3.73100e-03, -8.21900e-03, -1.38400e-03,  8.88800e-04,  3.50400e-04, -1.55800e-04],
                           [-5.47800e-01, -5.33900e-02, -2.12700e-02,  7.16900e-03,  2.57800e-03, -1.96800e-03, -5.96000e-04,  5.95300e-04],
                           [-4.02200e-01,  5.17400e-02, -5.03500e-03, -1.24100e-02, -2.51700e-03,  2.35500e-03,  6.08300e-04, -4.92000e-04],
                           [-4.72300e-02, -1.13800e-01, -1.08400e-02,  4.14200e-03,  8.46300e-04, -1.84700e-03, -8.50500e-05,  4.40300e-04],
                           [-1.48500e-01,  5.10800e-02, -1.32100e-02, -1.08000e-02, -8.36800e-04,  1.65200e-03, -1.63000e-04, -3.16400e-04],
                           [-1.34500e-02, -2.80100e-02, -5.46800e-03, -1.11600e-03, -1.69000e-03, -5.37300e-04,  3.11700e-04,  5.05600e-05],
                           [ 8.51400e-02, -7.45100e-02, -6.68600e-03,  6.68500e-03, -5.05600e-04, -2.15100e-03, -2.80500e-05,  4.41600e-04]])

# Reaction 5
chebyshev_reaction('O2 + gR (+ M) <=> gRO2 (+ M)',
                   Tmin=180.0, Tmax=1500.0,
                   Pmin=(0.01, 'atm'), Pmax=(98.692, 'atm'),
                   coeffs=[[ 1.17000e+01,  6.10300e-01, -9.65800e-02,  2.14300e-02, -5.74000e-03,  1.26000e-03, -2.47300e-04,  7.08200e-05],
                           [-2.27600e+00,  9.78500e-01, -9.89100e-02,  1.14300e-02, -1.71600e-03, -3.14600e-04,  3.77800e-04, -1.70700e-04],
                           [-1.48800e+00,  5.93300e-01, -7.87900e-04, -5.92300e-03,  1.25600e-03, -6.90500e-04,  2.40600e-04, -9.71100e-06],
                           [-9.79500e-01,  2.55800e-01,  4.79300e-02, -5.91900e-03,  4.13200e-04, -2.58300e-04, -2.18600e-05,  5.55200e-05],
                           [-6.19300e-01,  4.72900e-02,  4.81100e-02,  7.79300e-04, -2.49700e-04, -7.23600e-05, -1.00800e-04,  1.35700e-05],
                           [-3.68400e-01, -5.10200e-02,  2.87900e-02,  4.51600e-03,  2.29200e-04, -6.21300e-05, -8.13300e-05, -2.65500e-05],
                           [-2.00800e-01, -7.94600e-02,  8.49400e-03,  4.67700e-03,  6.48500e-04,  2.97100e-05, -5.44800e-05, -2.45000e-05],
                           [-9.30200e-02, -7.28900e-02, -4.97300e-03,  2.73900e-03,  7.33200e-04,  8.64600e-05, -2.19000e-05, -3.68700e-06],
                           [-2.90700e-02, -5.05900e-02, -1.19800e-02,  5.99000e-04,  4.85600e-04,  1.00900e-04,  2.85600e-06,  8.39000e-06],
                           [ 4.02100e-03, -2.46200e-02, -1.38100e-02, -1.15300e-03,  1.29300e-04,  9.47200e-05,  2.65500e-05,  5.39500e-06]])
#  gRO2(+M) <=> gQOOH[O](+M)                           1.000e+00 0.000     0.000
#      TCHEB/ 180.000   1500.000 /
#      PCHEB/ 0.010     98.692   /
#      CHEB/ 10 8/
#      CHEB/ -8.168e+00   2.027e+00    -1.625e-02   -5.926e-03   -2.723e-03  /
#      CHEB/ -6.140e-04   -2.762e-06   3.777e-05    4.207e+00    1.016e-01   /
#      CHEB/ 4.517e-03    4.684e-03    9.755e-05    -2.363e-04   -1.012e-04  /
#      CHEB/ -2.977e-05   -2.881e+00   4.526e-02    -1.113e-02   -4.258e-03  /
#      CHEB/ -2.354e-03   -5.965e-04   -2.409e-05   3.935e-05    -1.417e+00  /
#      CHEB/ 1.919e-02    -1.660e-03   -1.483e-03   -8.770e-04   -2.089e-04  /
#      CHEB/ 8.839e-07    3.308e-05    -7.409e-01   -1.373e-02   1.374e-03   /
#      CHEB/ -9.118e-04   -2.973e-04   -4.988e-06   2.583e-05    4.054e-05   /
#      CHEB/ -4.620e-01   -3.435e-02   3.755e-03    5.794e-04    2.956e-04   /
#      CHEB/ 1.212e-04    -3.072e-06   1.673e-05    -1.963e-01   -5.039e-02  /
#      CHEB/ -1.975e-03   -5.952e-04   -7.287e-05   9.541e-05    1.954e-05   /
#      CHEB/ 2.079e-05    -1.105e-01   -4.411e-02   -3.557e-03   2.755e-04   /
#      CHEB/ 9.070e-05    6.990e-05    -4.522e-06   -1.236e-07   -5.119e-02  /
#      CHEB/ -3.163e-02   -6.956e-03   -2.769e-04   -9.147e-05   4.300e-06   /
#      CHEB/ 7.112e-06    -1.180e-06   1.512e-02    -1.570e-02   -9.049e-03  /
#      CHEB/ -1.372e-03   -3.587e-04   -7.321e-05   1.705e-05    1.216e-06   /

# Reaction 6
chebyshev_reaction('gQOOHa (+ M) <=> gQOOH[O] (+ M)',
                   Tmin=180.0, Tmax=1500.0,
                   Pmin=(0.01, 'atm'), Pmax=(98.692, 'atm'),
                   coeffs=[[-1.36700e+01,  1.66000e+00, -2.69600e-01,  5.90000e-02,  6.85900e-03, -3.39000e-03,  1.31200e-03, -5.39000e-04],
                           [ 4.17800e+00,  1.54200e+00,  5.01100e-02, -9.54300e-02,  1.70800e-02,  2.74600e-03, -2.64900e-03,  1.12800e-03],
                           [-2.84200e+00,  3.94700e-01,  1.10400e-01, -2.41500e-02, -1.93400e-02, -7.77500e-04,  9.63500e-04, -6.63400e-05],
                           [-1.67000e+00, -1.55500e-01,  8.87100e-02,  3.67500e-02, -8.81100e-03, -3.89000e-03,  3.56200e-04,  2.28500e-04],
                           [-9.38000e-01, -2.60900e-01,  9.09900e-03,  3.54300e-02,  7.34700e-03, -1.94500e-03, -7.76300e-04,  6.47500e-05],
                           [-5.64000e-01, -1.97300e-01, -2.69900e-02,  9.09200e-03,  9.88300e-03,  2.14700e-03, -9.10700e-04, -2.11900e-04],
                           [-2.07100e-01, -1.07700e-01, -3.69900e-02, -9.67500e-03,  3.58000e-03,  2.12900e-03,  3.43400e-04, -1.65300e-04],
                           [-1.06300e-01, -4.98700e-02, -1.43800e-02, -1.00800e-02, -1.91000e-03,  8.77800e-04,  5.06400e-04,  1.48600e-04],
                           [-4.24400e-02, -1.97700e-02, -1.83100e-03, -3.87800e-03, -2.91300e-03, -8.10500e-04,  2.20000e-04,  2.46200e-04],
                           [ 2.52300e-02, -4.75700e-03, -1.06900e-03,  9.74900e-04, -1.06500e-03, -1.29000e-03, -2.29400e-04,  1.00800e-04]])

# Reaction 7
chebyshev_reaction('gQOOHg (+ M) <=> gQOOH[O] (+ M)',
                   Tmin=180.0, Tmax=1500.0,
                   Pmin=(0.01, 'atm'), Pmax=(98.692, 'atm'),
                   coeffs=[[-7.92500e+00,  6.89200e-01, -6.71100e-03,  2.45100e-02,  3.06600e-03,  3.84800e-04, -3.63100e-04, -1.48700e-04],
                           [-4.94100e-01,  1.01600e+00, -3.23900e-02,  5.44900e-03, -5.46300e-04, -6.45700e-04,  3.56100e-04,  2.28400e-04],
                           [-3.25200e+00,  4.23200e-01,  2.05500e-02, -2.05000e-02, -5.69200e-03, -2.12100e-03, -1.28100e-04,  1.37300e-04],
                           [-2.05200e+00, -3.66200e-02,  7.80100e-02, -8.64300e-04, -2.77900e-03, -5.11100e-04, -4.19900e-04, -1.27400e-04],
                           [-1.13700e+00, -2.64500e-01,  4.57600e-02,  1.79300e-02, -4.57400e-04,  4.75600e-04, -1.34300e-04, -1.63500e-04],
                           [-6.01700e-01, -2.49800e-01, -1.54600e-02,  2.03800e-02,  2.82200e-03,  1.79300e-04,  4.56200e-05, -6.00200e-05],
                           [-1.55000e-01, -1.33900e-01, -5.30800e-02,  3.41600e-03,  3.78600e-03, -2.90300e-06,  6.37400e-05,  1.33500e-04],
                           [-5.55300e-02, -1.84800e-02, -3.64400e-02, -1.02100e-02,  2.35600e-03,  6.99100e-04,  3.09700e-05,  1.24600e-04],
                           [-1.81600e-02,  2.55200e-02, -4.23000e-03, -1.27100e-02, -1.67800e-03,  1.16900e-03,  2.76600e-04, -2.80900e-07],
                           [ 2.37300e-02,  1.64500e-02,  1.40300e-02, -4.21700e-03, -4.16100e-03,  4.55600e-04,  4.68200e-04, -1.05000e-04]])

# Reaction 8
chebyshev_reaction('gQOOHb (+ M) <=> gQOOH[O] (+ M)',
                   Tmin=180.0, Tmax=1500.0,
                   Pmin=(0.01, 'atm'), Pmax=(98.692, 'atm'),
                   coeffs=[[-1.64300e+01,  3.16100e+00, -1.35400e-01, -2.32600e-02,  4.26200e-02,  1.65300e-03, -5.39000e-03, -1.61300e-04],
                           [-1.26400e+00, -8.54900e-01,  2.32600e-01,  5.36000e-02, -3.52800e-02,  3.05200e-04,  4.65100e-03, -1.50200e-04],
                           [-3.12500e+00, -1.18900e-02, -2.68700e-02,  2.01200e-03, -3.93400e-03, -1.78700e-03,  7.64700e-04,  2.16500e-04],
                           [-1.53900e+00,  6.37800e-02,  5.58200e-03, -6.48400e-03, -1.12000e-03,  5.72000e-04,  6.77900e-05, -2.11500e-04],
                           [-7.11400e-01, -3.13600e-02, -6.71500e-03,  9.49700e-03,  2.27000e-03, -1.93000e-03, -3.84100e-04,  6.42500e-04],
                           [-4.99000e-01,  3.99400e-02,  5.06900e-03, -8.79000e-03, -1.41800e-03,  2.27900e-03,  3.43200e-04, -5.20200e-04],
                           [-9.26400e-02, -1.26200e-01, -1.26500e-03,  6.13500e-03,  1.02900e-03, -1.64100e-03,  2.18400e-05,  4.47200e-04],
                           [-1.35200e-01,  1.73800e-02, -1.17400e-02, -7.03700e-03,  2.58000e-04,  1.53400e-03, -2.95900e-04, -2.86700e-04],
                           [-2.10000e-02, -4.68200e-02, -7.37800e-03,  5.31400e-04, -7.15700e-04, -2.07100e-04,  2.48800e-04, -1.75400e-05],
                           [ 8.62900e-02, -8.03800e-02, -1.02500e-02,  6.78500e-03, -1.34400e-04, -1.75900e-03,  9.16000e-05,  3.79400e-04]])

# Reaction 9
chebyshev_reaction('O2 + gR (+ M) <=> gQOOH[O] (+ M)',
                   Tmin=180.0, Tmax=1500.0,
                   Pmin=(0.01, 'atm'), Pmax=(98.692, 'atm'),
                   coeffs=[[ 1.61200e+00,  7.99700e-01,  2.90300e-02,  8.52200e-02,  1.94700e-02,  8.67800e-03,  1.27000e-03,  2.05000e-04],
                           [-2.99500e+00,  7.70400e-01, -2.35400e-01, -5.85000e-02, -2.89800e-02, -8.48700e-03, -1.30800e-03, -3.77700e-04],
                           [-1.85000e+00,  5.46100e-01, -3.18700e-02, -2.29000e-02, -5.65700e-03, -2.96800e-03, -2.13700e-04, -7.41100e-06],
                           [-1.09500e+00,  2.69000e-01,  5.72300e-02, -1.60100e-03,  2.29700e-03,  3.29700e-04,  2.07400e-04,  1.43600e-04],
                           [-6.30700e-01,  4.83800e-02,  4.95100e-02,  1.35100e-03,  2.11200e-04,  9.43600e-05, -8.17900e-06,  4.46200e-05],
                           [-4.56900e-01, -3.81200e-02,  3.82400e-02,  9.63200e-03,  2.69700e-03,  8.23000e-04,  1.79200e-04,  8.39700e-06],
                           [-1.65600e-01, -8.75400e-02,  3.18100e-03,  1.55100e-03, -6.96400e-04, -4.94100e-04, -1.99700e-04, -5.05100e-05],
                           [-1.15400e-01, -6.88300e-02, -1.99700e-03,  4.21800e-03,  1.40900e-03,  2.97600e-04,  3.21400e-05,  2.56300e-07],
                           [-4.98900e-02, -5.04400e-02, -1.17000e-02,  6.93400e-04,  5.57800e-04,  1.10100e-04, -2.71000e-06, -4.40300e-06],
                           [ 1.98000e-02, -2.57000e-02, -1.45300e-02, -1.66700e-03, -1.26100e-04, -2.10400e-05, -4.94900e-06,  3.83600e-06]])
#  gRO2(+M) <=> gQOOHa(+M)                             1.000e+00 0.000     0.000
#      TCHEB/ 180.000   1500.000 /
#      PCHEB/ 0.010     98.692   /
#      CHEB/ 10 8/
#      CHEB/ -3.994e+00   1.261e+00    -1.237e-01   -9.353e-03   4.445e-03   /
#      CHEB/ 1.416e-03    -7.435e-04   1.257e-04    4.687e+00    1.731e+00   /
#      CHEB/ -2.906e-02   -4.855e-02   1.286e-02    -1.833e-04   -3.321e-04  /
#      CHEB/ 1.861e-04    -1.942e+00   5.430e-01    1.266e-01    5.496e-04   /
#      CHEB/ -7.053e-03   -4.752e-04   9.935e-04    2.030e-05    -1.429e+00  /
#      CHEB/ -1.858e-01   1.141e-01    4.087e-02    -8.695e-03   -2.434e-03  /
#      CHEB/ 9.257e-04    4.483e-05    -8.848e-01   -3.395e-01   2.869e-02   /
#      CHEB/ 3.254e-02    2.780e-03    -1.141e-03   -6.093e-04   -4.040e-05  /
#      CHEB/ -4.945e-01   -2.239e-01   -3.123e-02   6.753e-03    6.908e-03   /
#      CHEB/ 1.962e-03    -9.875e-04   -2.702e-04   -1.942e-01   -1.124e-01  /
#      CHEB/ -3.309e-02   -1.016e-02   3.111e-03    2.305e-03    4.145e-05   /
#      CHEB/ -1.812e-04   -1.000e-01   -4.459e-02   -2.027e-02   -7.497e-03  /
#      CHEB/ -2.518e-03   5.304e-04    7.338e-04    1.383e-04    -2.499e-02  /
#      CHEB/ -1.806e-02   -5.594e-03   -1.738e-03   -3.144e-03   -1.165e-03  /
#      CHEB/ 4.358e-04    2.753e-04    2.712e-02    -4.048e-03   -1.163e-03  /
#      CHEB/ 1.706e-03    -7.239e-04   -1.387e-03   -1.848e-04   1.286e-04   /
#  gQOOH[O](+M) <=> gQOOHa(+M)                         1.000e+00 0.000     0.000
#      TCHEB/ 180.000   1500.000 /
#      PCHEB/ 0.010     98.692   /
#      CHEB/ 10 8/
#      CHEB/ -1.647e+00   1.660e+00    -2.696e-01   5.900e-02    6.859e-03   /
#      CHEB/ -3.390e-03   1.312e-03    -5.390e-04   -4.649e+00   1.542e+00   /
#      CHEB/ 5.011e-02    -9.543e-02   1.708e-02    2.746e-03    -2.649e-03  /
#      CHEB/ 1.128e-03    -2.853e+00   3.947e-01    1.104e-01    -2.415e-02  /
#      CHEB/ -1.934e-02   -7.775e-04   9.635e-04    -6.634e-05   -1.721e+00  /
#      CHEB/ -1.555e-01   8.871e-02    3.675e-02    -8.811e-03   -3.890e-03  /
#      CHEB/ 3.562e-04    2.285e-04    -9.631e-01   -2.609e-01   9.099e-03   /
#      CHEB/ 3.543e-02    7.347e-03    -1.945e-03   -7.763e-04   6.475e-05   /
#      CHEB/ -5.733e-01   -1.973e-01   -2.699e-02   9.092e-03    9.883e-03   /
#      CHEB/ 2.147e-03    -9.107e-04   -2.119e-04   -2.104e-01   -1.077e-01  /
#      CHEB/ -3.699e-02   -9.675e-03   3.580e-03    2.129e-03    3.434e-04   /
#      CHEB/ -1.653e-04   -1.076e-01   -4.987e-02   -1.438e-02   -1.008e-02  /
#      CHEB/ -1.910e-03   8.778e-04    5.064e-04    1.486e-04    -4.290e-02  /
#      CHEB/ -1.977e-02   -1.831e-03   -3.878e-03   -2.913e-03   -8.105e-04  /