units(length='cm', time='s', quantity='mol', act_energy='kcal/mol')

ideal_gas(name='gas',
          elements="H D T C Ci O Oi N Ne Ar He Si S F Cl Br I X",
          species="""aOOHbalkene      OH               ibutanal
                     aR               performic_acid   disub_c4ether
                     aQOOHb           H                aadduct
                     trisub_epoxy     ibutenol         aQOOH[O]
                     ipropyl          aRO2             O2
                     formic_acid      propene          aQOOHg
                     ibut_peroxyacid  HO2              CH3""",
          reactions='all',
          initial_state=state(temperature=300.0, pressure=OneAtm))

#-------------------------------------------------------------------------------
# Element data
#-------------------------------------------------------------------------------

element(symbol='Ci', atomic_mass=13.003)
element(symbol='D', atomic_mass=2.014)
element(symbol='Oi', atomic_mass=18.0)
element(symbol='T', atomic_mass=3.016)
element(symbol='X', atomic_mass=195.083)
#-------------------------------------------------------------------------------
# Species data
#-------------------------------------------------------------------------------

species(name='aOOHbalkene',
        atoms='C:3 H:6 O:3',
        thermo=(NASA([10.00, 497.41],
                     [ 3.76691735E+00,  1.51417956E-02,  1.85499431E-04,
                      -4.61303214E-07,  3.27678941E-10, -3.03029294E+04,
                       1.09903968E+01]),
                NASA([497.41, 3000.00],
                     [ 6.20882781E+00,  4.08866173E-02, -2.89934946E-05,
                       9.60428979E-09, -1.19355432E-12, -3.11072587E+04,
                      -4.72842811E+00])))

species(name='OH',
        atoms='H:1 O:1',
        thermo=(NASA([10.00, 984.14],
                     [ 3.49686242E+00,  1.83973160E-04, -9.97634499E-07,
                       1.56942783E-09, -6.10128175E-13,  3.41673934E+03,
                       1.48093120E+00]),
                NASA([984.14, 3000.00],
                     [ 3.45221464E+00, -2.95124034E-04,  7.39418622E-07,
                      -2.89309866E-10,  3.53041498E-14,  3.45751599E+03,
                       1.85813897E+00])))

species(name='ibutanal',
        atoms='C:4 H:8 O:1',
        thermo=(NASA([10.00, 683.88],
                     [ 3.57157346E+00,  3.36936906E-02, -1.78475021E-05,
                       1.31946716E-08, -7.58008388E-12, -2.67837385E+04,
                       1.05595084E+01]),
                NASA([683.88, 3000.00],
                     [ 1.29043622E+00,  4.14804229E-02, -2.27411206E-05,
                       6.08619500E-09, -6.38995128E-13, -2.63418193E+04,
                       2.16477430E+01])))

species(name='aR',
        atoms='C:4 H:9 O:1',
        thermo=(NASA([10.00, 455.22],
                     [ 3.59625500E+00,  3.38947981E-02,  7.37257079E-06,
                      -3.99275335E-08,  2.49019944E-11, -1.44786544E+04,
                       1.18269265E+01]),
                NASA([455.22, 3000.00],
                     [ 2.49586309E+00,  4.35639890E-02, -2.44887770E-05,
                       6.73363769E-09, -7.23862433E-13, -1.43784712E+04,
                       1.62696907E+01])))

species(name='performic_acid',
        atoms='C:1 H:2 O:3',
        thermo=(NASA([10.00, 590.95],
                     [ 3.92633851E+00,  4.24517168E-03,  6.71106764E-05,
                      -1.36545385E-07,  8.03337864E-11, -3.63028176E+04,
                       8.06485813E+00]),
                NASA([590.95, 3000.00],
                     [ 4.39992934E+00,  1.85411415E-02, -1.36005501E-05,
                       4.62292431E-09, -5.88463603E-13, -3.66643888E+04,
                       3.44353230E+00])))

species(name='disub_c4ether',
        atoms='C:4 H:8 O:2',
        thermo=(NASA([10.00, 413.50],
                     [ 3.78241323E+00,  1.89501763E-02,  8.65302396E-05,
                      -1.80580575E-07,  1.13656264E-10, -4.15053213E+04,
                       1.09982450E+01]),
                NASA([413.50, 3000.00],
                     [ 4.29420885E-01,  5.13851903E-02, -3.11292293E-05,
                       9.11498284E-09, -1.03192718E-12, -4.12280270E+04,
                       2.42134976E+01])))

species(name='aQOOHb',
        atoms='C:4 H:9 O:3',
        thermo=(NASA([10.00, 412.78],
                     [ 3.15498836E+00,  8.55068303E-02, -2.35307993E-04,
                       4.71983261E-07, -3.62709267E-10, -2.90847444E+04,
                       1.52522123E+01]),
                NASA([412.78, 3000.00],
                     [ 4.18099845E+00,  5.26168288E-02, -3.23998410E-05,
                       9.59389339E-09, -1.09464519E-12, -2.89739494E+04,
                       1.35782328E+01])))

species(name='H',
        atoms='H:1',
        thermo=(NASA([10.00, 794.01],
                     [ 2.50000000E+00,  1.99051163E-15, -1.19089508E-17,
                       2.10805655E-20, -1.11017699E-23,  2.54725594E+04,
                      -4.61279342E-01]),
                NASA([794.01, 3000.00],
                     [ 2.50000000E+00,  1.52667235E-14, -1.58445285E-17,
                       6.63088600E-21, -9.62111674E-25,  2.54725594E+04,
                      -4.61279342E-01])))

species(name='aadduct',
        atoms='C:4 H:9 O:3',
        thermo=(NASA([10.00, 449.84],
                     [ 3.06901904E+00,  9.20724491E-02, -2.68085092E-04,
                       5.15249897E-07, -3.68046586E-10, -3.15008016E+04,
                       1.46591735E+01]),
                NASA([449.84, 3000.00],
                     [ 4.11210745E+00,  5.16955724E-02, -2.97401041E-05,
                       8.32758939E-09, -9.08861448E-13, -3.12799607E+04,
                       1.39578825E+01])))

species(name='trisub_epoxy',
        atoms='C:4 H:8 O:2',
        thermo=(NASA([10.00, 209.19],
                     [ 3.75295042E+00,  2.37546930E-02,  1.26610110E-04,
                      -4.78364365E-07,  5.79468168E-10, -4.00545609E+04,
                       1.12739684E+01]),
                NASA([209.19, 3000.00],
                     [ 2.64185254E+00,  4.50006531E-02, -2.57361066E-05,
                       7.15266054E-09, -7.72980731E-13, -4.00080753E+04,
                       1.48960343E+01])))

species(name='ibutenol',
        atoms='C:4 H:8 O:1',
        thermo=(NASA([10.00, 135.97],
                     [ 3.95714996E+00,  5.72646980E-03,  4.63611760E-04,
                      -3.04137514E-06,  6.85019471E-09, -2.44099625E+04,
                       8.21931848E+00]),
                NASA([135.97, 3000.00],
                     [ 3.32467612E+00,  3.69033556E-02, -1.89960416E-05,
                       4.73417677E-09, -4.59705291E-13, -2.44043838E+04,
                       9.58133237E+00])))

species(name='aQOOH[O]',
        atoms='C:4 H:9 O:3',
        thermo=(NASA([10.00, 488.36],
                     [ 3.54559533E+00,  3.89536133E-02,  8.47689703E-05,
                      -2.45147486E-07,  1.76157259E-10, -2.36717900E+04,
                       1.34685910E+01]),
                NASA([488.36, 3000.00],
                     [ 3.94214913E+00,  5.71928314E-02, -3.72516212E-05,
                       1.15209013E-08, -1.35808341E-12, -2.39667509E+04,
                       9.21628964E+00])))

species(name='ipropyl',
        atoms='C:3 H:7',
        thermo=(NASA([10.00, 421.76],
                     [ 3.73943775E+00,  3.10070157E-02, -1.51196908E-04,
                       4.35367329E-07, -3.85565052E-10,  9.49213457E+03,
                       7.79448918E+00]),
                NASA([421.76, 3000.00],
                     [-4.74526725E-01,  3.20862468E-02, -1.67340747E-05,
                       4.21365136E-09, -4.13155573E-13,  1.01934458E+04,
                       2.85865912E+01])))

species(name='aRO2',
        atoms='C:4 H:9 O:3',
        thermo=(NASA([10.00, 670.36],
                     [ 3.45405325E+00,  4.74751311E-02,  9.77507759E-06,
                      -6.31019603E-08,  3.75500067E-11, -3.31629498E+04,
                       1.39284976E+01]),
                NASA([670.36, 3000.00],
                     [ 5.04137652E+00,  5.19952978E-02, -3.16472789E-05,
                       9.22798587E-09, -1.03598915E-12, -3.36901423E+04,
                       4.56056770E+00])))

species(name='O2',
        atoms='O:2',
        thermo=(NASA([10.00, 605.96],
                     [ 3.50743498E+00, -4.43860349E-04,  1.45938058E-06,
                       1.61509333E-09, -2.32050052E-12, -9.24756224E+02,
                       4.72183634E+00]),
                NASA([605.96, 3000.00],
                     [ 2.87462882E+00,  2.17840991E-03, -1.18262921E-06,
                       2.86910493E-10, -2.53297146E-14, -8.19517838E+02,
                       7.69331810E+00])))

species(name='formic_acid',
        atoms='C:1 H:2 O:2',
        thermo=(NASA([10.00, 741.38],
                     [ 4.06855785E+00, -4.74562133E-03,  4.71797900E-05,
                      -6.07490052E-08,  2.51286794E-11, -4.66880837E+04,
                       6.53681035E+00]),
                NASA([741.38, 3000.00],
                     [ 1.13645847E+00,  1.74953124E-02, -1.08112403E-05,
                       3.08075326E-09, -3.34892658E-13, -4.64297918E+04,
                       1.86149484E+01])))

species(name='propene',
        atoms='C:3 H:6',
        thermo=(NASA([10.00, 519.53],
                     [ 3.98723879E+00,  4.72040503E-04,  6.51776229E-05,
                      -9.89891002E-08,  4.91141123E-11, -2.82902323E+02,
                       6.98071210E+00]),
                NASA([519.53, 3000.00],
                     [ 3.79893331E-01,  2.82457690E-02, -1.50108430E-05,
                       3.90894069E-09, -4.00521928E-13,  9.19250250E+01,
                       2.20218922E+01])))

species(name='aQOOHg',
        atoms='C:4 H:9 O:3',
        thermo=(NASA([10.00, 455.48],
                     [ 3.62522127E+00,  2.83222320E-02,  2.08527447E-04,
                      -5.67427418E-07,  4.35169138E-10, -2.41556759E+04,
                       1.26617758E+01]),
                NASA([455.48, 3000.00],
                     [ 5.13914202E+00,  5.96270859E-02, -4.14435328E-05,
                       1.34202375E-08, -1.63474553E-12, -2.47562323E+04,
                       1.46991116E+00])))

species(name='ibut_peroxyacid',
        atoms='C:4 H:8 O:3',
        thermo=(NASA([10.00, 1386.21],
                     [ 3.50995385E+00,  4.78670384E-02, -2.40781384E-05,
                       3.71046938E-09,  3.85442115E-13, -4.79243671E+04,
                       1.22017268E+01]),
                NASA([1386.21, 3000.00],
                     [ 1.24543146E+01,  3.02396862E-02, -1.38577031E-05,
                       3.05328904E-09, -2.63982457E-13, -5.11902504E+04,
                      -3.67061828E+01])))

species(name='HO2',
        atoms='H:1 O:2',
        thermo=(NASA([10.00, 891.11],
                     [ 4.02887004E+00, -1.75769289E-03,  1.08726004E-05,
                      -1.13812972E-08,  3.90113097E-12,  4.95165001E+02,
                       4.69302008E+00]),
                NASA([891.11, 3000.00],
                     [ 3.06571044E+00,  4.28505005E-03, -2.19325920E-06,
                       5.58882699E-10, -5.61246669E-14,  5.98557610E+02,
                       8.84564156E+00])))

species(name='CH3',
        atoms='C:1 H:3',
        thermo=(NASA([10.00, 616.77],
                     [ 3.98929952E+00,  5.45150461E-04,  9.01320092E-06,
                      -1.08320497E-08,  4.38985879E-12,  1.65859883E+04,
                       2.22446886E-01]),
                NASA([616.77, 3000.00],
                     [ 3.35928237E+00,  4.63117126E-03, -9.24365433E-07,
                      -9.02514624E-11,  3.56905106E-14,  1.66637014E+04,
                       2.95743732E+00])))

#-------------------------------------------------------------------------------
# Reaction data
#-------------------------------------------------------------------------------

# Reaction 1
chebyshev_reaction('aQOOH[O] (+ M) <=> aQOOHb (+ M)',
                   Tmin=180.0, Tmax=1500.0,
                   Pmin=(0.01, 'atm'), Pmax=(98.692, 'atm'),
                   coeffs=[[-8.95900e-01,  1.50300e+00, -2.80000e-01, -7.85000e-03,  9.73000e-03, -2.36200e-03, -2.19200e-03,  9.49500e-04],
                           [-3.43500e+00,  1.72300e+00,  3.08800e-01,  1.80000e-02, -2.63200e-02, -2.32600e-03,  3.68400e-03,  2.91400e-06],
                           [-3.57000e+00,  3.18400e-01,  4.67600e-02,  2.81900e-02, -9.00100e-04, -4.23200e-03,  6.88400e-05,  8.75300e-04],
                           [-2.01600e+00, -9.90900e-02, -1.90100e-02,  1.94800e-02,  7.64900e-03, -2.27200e-03, -1.50500e-03,  1.80800e-04],
                           [-1.02600e+00, -2.34200e-01, -4.10300e-02,  1.43200e-02,  1.20900e-02,  1.65200e-03, -1.25800e-03, -6.13100e-04],
                           [-4.45700e-01, -2.33400e-01, -6.57600e-02,  2.08300e-03,  9.77000e-03,  3.98200e-03, -7.63800e-05, -6.86000e-04],
                           [-1.34300e-01, -1.41800e-01, -7.11600e-02, -9.70200e-03,  4.00500e-03,  3.47900e-03,  6.24400e-04, -3.84400e-04],
                           [ 6.22600e-03, -1.94400e-02, -4.67400e-02, -1.70700e-02, -1.77400e-04,  1.59600e-03,  5.51500e-04, -4.99500e-05],
                           [ 3.87400e-02,  5.67700e-02, -1.25300e-02, -1.22600e-02, -3.82000e-03,  3.68700e-06,  3.27200e-04,  1.20200e-04],
                           [ 1.41100e-02,  9.09800e-02,  2.16800e-02, -6.87100e-03, -3.72800e-03, -1.12600e-03,  8.05700e-05,  2.26500e-04]])

# Reaction 2
chebyshev_reaction('aQOOHg (+ M) <=> aQOOHb (+ M)',
                   Tmin=180.0, Tmax=1500.0,
                   Pmin=(0.01, 'atm'), Pmax=(98.692, 'atm'),
                   coeffs=[[-2.28500e+00,  1.21500e+00, -3.23200e-01, -4.33900e-02,  6.51100e-03,  3.11500e-03,  4.57300e-04,  1.41800e-04],
                           [-3.68000e+00,  2.32800e+00,  3.22000e-01, -6.93000e-02, -4.16300e-02,  5.95800e-03,  6.43400e-03, -5.82400e-05],
                           [-3.95700e+00,  8.45600e-02,  1.61000e-01,  6.39200e-02, -6.87600e-03, -6.41900e-03,  4.05200e-04,  8.30700e-04],
                           [-2.28200e+00, -4.38100e-01, -6.52900e-02,  3.74000e-02,  1.88600e-02,  1.74500e-03, -2.03900e-03, -8.99300e-04],
                           [-1.03000e+00, -3.19900e-01, -9.52300e-02, -6.83300e-04,  7.65900e-03,  4.12700e-03,  6.07800e-04, -6.63900e-04],
                           [-3.74300e-01, -1.73500e-01, -5.42700e-02,  1.90300e-03, -8.24800e-04, -5.98900e-04,  6.43900e-04,  2.73200e-04],
                           [-8.84800e-02, -9.45300e-02, -3.98000e-02,  8.32200e-03,  3.70900e-03, -1.69200e-03, -1.02300e-03,  5.16300e-05],
                           [ 8.54500e-03, -1.97200e-02, -4.25600e-02, -2.15600e-03,  6.61700e-03,  1.26900e-03, -9.91100e-04, -4.90300e-04],
                           [ 1.66700e-02,  4.65100e-02, -2.68800e-02, -1.40800e-02,  1.54700e-03,  2.36000e-03,  2.98900e-04, -2.68600e-04],
                           [ 1.26700e-02,  6.81100e-02,  7.01400e-03, -1.29800e-02, -4.57300e-03,  4.41200e-04,  7.92800e-04,  2.63600e-04]])

# Reaction 3
chebyshev_reaction('aRO2 (+ M) <=> aQOOHb (+ M)',
                   Tmin=180.0, Tmax=1500.0,
                   Pmin=(0.01, 'atm'), Pmax=(98.692, 'atm'),
                   coeffs=[[-4.23800e+00,  1.21400e+00,  7.31100e-03, -3.24500e-02,  1.25900e-03, -6.75900e-04,  2.20700e-04,  7.39700e-04],
                           [ 2.45500e+00,  1.71000e+00,  1.08300e-01, -3.04500e-02, -1.89000e-02,  4.43200e-03,  1.63200e-03, -7.92900e-04],
                           [-3.31200e+00,  7.08800e-01,  8.95200e-02,  1.76400e-02, -4.35300e-03, -5.40500e-03,  1.72000e-03,  6.65900e-04],
                           [-2.20700e+00, -9.24400e-02,  2.78200e-02,  3.92700e-02,  6.80300e-03, -3.26800e-03, -1.51200e-03,  7.05800e-04],
                           [-1.23100e+00, -4.06000e-01, -5.42600e-02,  3.63100e-02,  9.98700e-03,  8.70000e-05, -9.80500e-04, -4.14500e-04],
                           [-4.92900e-01, -3.46100e-01, -1.01700e-01,  1.56200e-02,  8.78700e-03,  1.53800e-03,  2.06900e-04, -5.04500e-04],
                           [-9.91400e-02, -1.45900e-01, -9.40200e-02, -8.11800e-03,  5.82400e-03,  1.92500e-03,  1.88600e-04, -5.05700e-05],
                           [ 5.07800e-02,  2.30900e-02, -4.98200e-02, -2.00300e-02,  1.08600e-03,  1.86800e-03, -4.25900e-05, -1.27500e-06],
                           [ 8.73500e-02,  9.84700e-02, -1.66700e-03, -1.61700e-02, -3.98700e-03,  1.29900e-03,  1.61900e-04, -2.60800e-04],
                           [-2.27200e-02,  9.67500e-02,  2.77600e-02, -6.64300e-03, -4.10400e-03, -4.59600e-04,  6.69200e-05,  1.84600e-04]])

# Reaction 4
chebyshev_reaction('aadduct (+ M) <=> aQOOHb (+ M)',
                   Tmin=180.0, Tmax=1500.0,
                   Pmin=(0.01, 'atm'), Pmax=(98.692, 'atm'),
                   coeffs=[[-4.61500e+00,  3.28800e-01, -1.71400e-01,  2.41200e-03, -3.10400e-03, -2.13400e-03,  1.45800e-03,  1.27300e-04],
                           [ 1.73900e-01,  2.51800e+00,  2.42500e-01, -9.44300e-02, -4.77200e-03,  4.79600e-03, -7.68300e-04,  4.81500e-04],
                           [-3.74300e+00,  5.89300e-01,  2.11500e-01,  2.06700e-02, -1.26900e-02, -1.77700e-03,  1.28200e-03,  1.68500e-04],
                           [-2.35400e+00, -3.25500e-01,  1.66800e-02,  5.19300e-02,  7.74900e-03, -4.21100e-03, -4.86200e-04,  4.79600e-04],
                           [-1.14600e+00, -4.32800e-01, -9.91300e-02,  2.29300e-02,  1.45100e-02, -5.19000e-06, -1.04800e-03, -2.63000e-05],
                           [-3.87200e-01, -2.53600e-01, -1.02200e-01, -5.70600e-03,  8.50100e-03,  2.42800e-03, -3.42700e-04, -2.62400e-04],
                           [-5.84000e-02, -7.17100e-02, -6.38000e-02, -1.34800e-02,  2.29800e-03,  1.96300e-03,  1.29000e-04, -2.45100e-04],
                           [ 3.26800e-02,  2.89300e-02, -2.67900e-02, -1.13800e-02,  6.40300e-05,  1.03900e-03,  6.17000e-05, -1.63200e-04],
                           [ 3.87300e-02,  6.00400e-02,  7.18500e-05, -9.47500e-03, -6.74300e-04,  8.59400e-04, -1.58700e-04, -3.43000e-05],
                           [-2.18400e-02,  7.28300e-02,  7.95600e-03, -5.17400e-03, -1.65300e-03,  1.53600e-05,  2.42600e-04,  5.88000e-05]])

# Reaction 5
chebyshev_reaction('O2 + aR (+ M) <=> aQOOHb (+ M)',
                   Tmin=180.0, Tmax=1500.0,
                   Pmin=(0.01, 'atm'), Pmax=(98.692, 'atm'),
                   coeffs=[[ 9.19500e+00,  1.23900e+00, -6.05900e-01,  6.12300e-02, -1.65800e-02,  2.10900e-03,  5.05800e-03, -8.56800e-04],
                           [-2.92500e+00,  1.41000e+00,  2.17500e-01, -9.25100e-02,  5.13600e-02, -1.29700e-02, -7.49200e-03,  2.75700e-03],
                           [-2.02700e+00,  3.74800e-01,  2.49500e-01, -5.09800e-02,  3.09400e-04,  1.26100e-02, -4.14500e-03, -1.28700e-03],
                           [-1.37000e+00, -1.06900e-01,  1.56700e-01, -5.30400e-04, -1.85900e-02,  7.49400e-03,  2.15200e-03, -1.31700e-03],
                           [-7.38200e-01, -2.43800e-01,  5.56200e-02,  2.28500e-02, -1.33200e-02, -9.20900e-04,  2.69500e-03,  3.89400e-05],
                           [-2.93000e-01, -2.14300e-01, -1.44700e-02,  2.19100e-02, -2.45700e-03, -3.21900e-03,  7.40000e-04,  4.26100e-04],
                           [-5.38800e-02, -1.14300e-01, -4.67600e-02,  9.37000e-03,  4.05300e-03, -1.61500e-03, -5.89600e-04,  7.03400e-05],
                           [ 3.90200e-02, -8.52000e-03, -4.31400e-02, -3.90100e-03,  4.52300e-03,  2.95500e-04, -7.69700e-04, -2.33200e-04],
                           [ 4.09000e-02,  5.48400e-02, -1.87700e-02, -1.04300e-02,  1.61900e-03,  1.08900e-03, -3.84400e-04, -2.81200e-04],
                           [ 1.87000e-02,  6.70000e-02,  9.11700e-03, -8.64300e-03, -2.11100e-03,  5.83700e-04,  1.60900e-04, -6.18600e-05]])
#  aQOOHb(+M) <=> aQOOH[O](+M)                         1.000e+00 0.000     0.000
#      TCHEB/ 180.000   1500.000 /
#      PCHEB/ 0.010     98.692   /
#      CHEB/ 10 8/
#      CHEB/ -9.703e+00   1.503e+00    -2.800e-01   -7.850e-03   9.730e-03   /
#      CHEB/ -2.362e-03   -2.192e-03   9.495e-04    2.134e+00    1.723e+00   /
#      CHEB/ 3.088e-01    1.800e-02    -2.632e-02   -2.326e-03   3.684e-03   /
#      CHEB/ 2.914e-06    -3.492e+00   3.184e-01    4.676e-02    2.819e-02   /
#      CHEB/ -9.001e-04   -4.232e-03   6.884e-05    8.753e-04    -1.970e+00  /
#      CHEB/ -9.909e-02   -1.901e-02   1.948e-02    7.649e-03    -2.272e-03  /
#      CHEB/ -1.505e-03   1.808e-04    -1.011e+00   -2.342e-01   -4.103e-02  /
#      CHEB/ 1.432e-02    1.209e-02    1.652e-03    -1.258e-03   -6.131e-04  /
#      CHEB/ -4.409e-01   -2.334e-01   -6.576e-02   2.083e-03    9.770e-03   /
#      CHEB/ 3.982e-03    -7.638e-05   -6.860e-04   -1.324e-01   -1.418e-01  /
#      CHEB/ -7.116e-02   -9.702e-03   4.005e-03    3.479e-03    6.244e-04   /
#      CHEB/ -3.844e-04   6.942e-03    -1.944e-02   -4.674e-02   -1.707e-02  /
#      CHEB/ -1.774e-04   1.596e-03    5.515e-04    -4.995e-05   3.894e-02   /
#      CHEB/ 5.677e-02    -1.253e-02   -1.226e-02   -3.820e-03   3.687e-06   /
#      CHEB/ 3.272e-04    1.202e-04    1.412e-02    9.098e-02    2.168e-02   /
#      CHEB/ -6.871e-03   -3.728e-03   -1.126e-03   8.057e-05    2.265e-04   /

# Reaction 6
chebyshev_reaction('aQOOHg (+ M) <=> aQOOH[O] (+ M)',
                   Tmin=180.0, Tmax=1500.0,
                   Pmin=(0.01, 'atm'), Pmax=(98.692, 'atm'),
                   coeffs=[[-3.58100e+00,  2.15500e+00, -2.36000e-01, -4.20800e-03, -1.25400e-03,  7.20400e-03, -2.76300e-03, -2.30500e-04],
                           [-4.50100e+00,  1.22200e+00,  2.22500e-01, -8.27500e-02,  2.08600e-02, -6.47000e-03, -3.16500e-04,  1.38700e-03],
                           [-3.93500e+00, -1.01200e-01, -8.22300e-02,  5.12200e-02,  9.82600e-03, -9.18800e-03,  6.13300e-04,  7.43200e-04],
                           [-1.84900e+00, -2.29100e-01, -1.89100e-01,  2.67100e-02,  1.24300e-03,  8.64800e-04,  1.46400e-03, -1.50200e-03],
                           [-7.24700e-01, -3.76700e-02, -9.67200e-02, -1.09700e-02, -9.27800e-03,  5.97900e-03,  1.90600e-03, -1.53500e-03],
                           [-2.40300e-01, -5.82300e-03,  1.55100e-02, -2.10200e-02, -7.22400e-03,  3.18300e-03,  5.36000e-04, -3.42400e-05],
                           [-1.21600e-01,  1.96100e-03,  1.19500e-02, -9.66700e-04, -3.01300e-03,  7.86500e-04, -9.81100e-04,  4.81300e-04],
                           [-4.48400e-02, -3.02300e-02,  3.96700e-03, -4.96100e-04,  9.63300e-04,  8.93000e-04, -1.10700e-03,  3.72600e-04],
                           [-7.08100e-02,  5.53600e-02, -3.46300e-02,  6.95900e-03, -1.22200e-03, -3.34400e-05,  3.69900e-04,  9.68700e-05],
                           [ 4.39500e-02, -5.60600e-02,  4.84000e-02, -1.84000e-02,  2.93400e-03, -9.88400e-04, -1.96300e-04,  5.70300e-04]])

# Reaction 7
chebyshev_reaction('aRO2 (+ M) <=> aQOOH[O] (+ M)',
                   Tmin=180.0, Tmax=1500.0,
                   Pmin=(0.01, 'atm'), Pmax=(98.692, 'atm'),
                   coeffs=[[-8.58700e+00,  3.43400e+00, -6.91900e-01,  3.96300e-02,  4.44500e-02, -1.72100e-02, -2.39600e-04,  2.25500e-03],
                           [ 5.82300e+00,  2.45700e-01,  5.11000e-01, -6.03900e-02, -4.16900e-02,  1.88500e-02,  1.45500e-03, -3.08300e-03],
                           [-3.96900e+00,  1.46300e-02,  2.27400e-02,  4.22300e-03,  3.70700e-03, -1.14100e-03, -6.81800e-04,  6.67000e-04],
                           [-2.02100e+00, -1.56800e-01, -7.00700e-03, -6.53800e-03, -9.38400e-04,  2.04800e-03, -1.02200e-03, -1.77600e-04],
                           [-9.18300e-01, -1.23100e-01, -2.16300e-02, -1.62600e-04, -2.05500e-04, -7.08600e-05,  1.74500e-04, -9.78700e-05],
                           [-3.54400e-01, -5.99300e-02, -3.20800e-02, -4.82600e-04,  1.32700e-03, -7.87100e-04,  4.03400e-04,  1.79600e-04],
                           [-1.01900e-01, -2.15700e-03, -2.52100e-02, -4.88900e-03, -8.22000e-05, -3.91300e-05,  3.58200e-05,  1.61200e-04],
                           [-1.18100e-02,  2.83900e-02,  2.21700e-03, -1.08700e-02, -8.17700e-04,  6.44100e-04, -3.96500e-04,  1.18700e-04],
                           [ 6.95100e-03,  4.04600e-02,  4.63900e-03,  2.89800e-03, -3.93600e-03, -2.25400e-04,  5.62800e-04, -2.29600e-04],
                           [-1.57800e-02,  3.46300e-02,  1.65500e-02,  7.59700e-04,  8.83300e-04, -1.09700e-03,  5.73700e-05,  1.05800e-04]])

# Reaction 8
chebyshev_reaction('aadduct (+ M) <=> aQOOH[O] (+ M)',
                   Tmin=180.0, Tmax=1500.0,
                   Pmin=(0.01, 'atm'), Pmax=(98.692, 'atm'),
                   coeffs=[[-8.56300e+00,  2.93900e+00, -9.49300e-01,  5.18200e-02,  5.81900e-02, -2.18700e-02,  8.21900e-05,  3.10100e-03],
                           [ 2.99400e+00,  5.33800e-01,  6.49900e-01, -7.11000e-02, -3.99200e-02,  2.38900e-02, -1.98700e-03, -3.93600e-03],
                           [-4.34900e+00, -9.14800e-02,  6.96700e-02,  2.29100e-02, -3.75300e-03, -1.92700e-03,  2.07700e-03,  2.70400e-04],
                           [-2.06700e+00, -2.86700e-01, -4.50400e-02,  5.59600e-03,  1.35700e-03,  3.04400e-05, -6.69700e-04,  3.10400e-04],
                           [-8.23800e-01, -1.41300e-01, -7.30200e-02, -8.44300e-03,  3.75500e-03,  5.96800e-04, -4.39900e-04, -1.14000e-05],
                           [-2.58600e-01, -5.15600e-03, -4.77500e-02, -1.62800e-02, -5.24700e-05,  1.08200e-03,  4.45100e-04, -1.48300e-04],
                           [-6.46500e-02,  4.52100e-02, -7.46500e-03, -1.07400e-02, -4.86600e-03,  2.41800e-04,  6.77800e-04,  9.40800e-06],
                           [-2.10600e-02,  3.09300e-02,  2.20000e-02, -4.61600e-03, -2.92800e-03, -7.90800e-04, -1.80500e-04,  3.36800e-04],
                           [-1.97500e-02,  1.01200e-02,  6.98500e-03,  1.03000e-02, -1.83100e-03, -1.14400e-03,  1.14700e-04, -5.95900e-05],
                           [-2.74400e-02,  6.06000e-03,  6.28100e-03,  1.00500e-03,  3.67100e-03, -4.85000e-04, -3.24300e-04,  3.48100e-05]])

# Reaction 9
chebyshev_reaction('O2 + aR (+ M) <=> aQOOH[O] (+ M)',
                   Tmin=180.0, Tmax=1500.0,
                   Pmin=(0.01, 'atm'), Pmax=(98.692, 'atm'),
                   coeffs=[[ 4.11500e+00,  4.48300e+00,  1.09100e-01, -4.66200e-01, -1.55200e-02,  1.20100e-01, -9.42500e-03, -2.95300e-02],
                           [-2.10600e+00, -1.78500e+00,  2.61900e-01,  4.83200e-01, -1.07200e-01, -1.49600e-01,  4.90700e-02,  3.75900e-02],
                           [-1.62100e+00, -1.44300e-01, -7.80600e-02,  2.55300e-02,  7.20600e-02, -5.18200e-03, -3.77500e-02,  5.54400e-03],
                           [-8.75000e-01, -8.96000e-02, -6.99600e-02, -1.29900e-03,  2.81300e-02,  1.15400e-02, -6.84600e-03, -7.57700e-03],
                           [-4.32000e-01, -7.46300e-02, -4.08200e-02, -7.35100e-03,  4.16700e-03,  1.00700e-02,  2.96600e-03, -4.82800e-03],
                           [-2.23200e-01, -3.08800e-02, -3.01400e-02, -1.51700e-02,  2.09000e-03,  4.23700e-03,  1.59100e-03,  7.07600e-05],
                           [-1.00300e-01, -2.20700e-02, -1.79600e-02, -1.25600e-02, -1.89600e-03,  1.66200e-03,  5.75100e-04,  4.08600e-04],
                           [-4.46800e-02,  1.05900e-03, -9.23800e-03, -4.09700e-03, -4.34500e-03, -1.96500e-03,  1.91700e-03,  7.67000e-04],
                           [ 5.22000e-03, -4.38500e-03,  1.32500e-02,  1.70600e-04, -5.11000e-03,  1.83100e-04, -7.74700e-06, -5.85000e-04],
                           [-1.84200e-02,  3.68000e-02,  5.40200e-03,  1.36600e-03,  2.65300e-03, -2.38500e-03, -8.04400e-04,  1.35100e-03]])
#  aQOOHb(+M) <=> aQOOHg(+M)                           1.000e+00 0.000     0.000
#      TCHEB/ 180.000   1500.000 /
#      PCHEB/ 0.010     98.692   /
#      CHEB/ 10 8/
#      CHEB/ -1.063e+01   1.215e+00    -3.232e-01   -4.339e-02   6.511e-03   /
#      CHEB/ 3.115e-03    4.573e-04    1.418e-04    1.678e+00    2.328e+00   /
#      CHEB/ 3.220e-01    -6.930e-02   -4.163e-02   5.958e-03    6.434e-03   /
#      CHEB/ -5.824e-05   -3.734e+00   8.456e-02    1.610e-01    6.392e-02   /
#      CHEB/ -6.876e-03   -6.419e-03   4.052e-04    8.307e-04    -2.188e+00  /
#      CHEB/ -4.381e-01   -6.529e-02   3.740e-02    1.886e-02    1.745e-03   /
#      CHEB/ -2.039e-03   -8.993e-04   -1.002e+00   -3.199e-01   -9.523e-02  /
#      CHEB/ -6.833e-04   7.659e-03    4.127e-03    6.078e-04    -6.639e-04  /
#      CHEB/ -3.664e-01   -1.735e-01   -5.427e-02   1.903e-03    -8.248e-04  /
#      CHEB/ -5.989e-04   6.439e-04    2.732e-04    -8.597e-02   -9.453e-02  /
#      CHEB/ -3.980e-02   8.322e-03    3.709e-03    -1.692e-03   -1.023e-03  /
#      CHEB/ 5.163e-05    9.275e-03    -1.972e-02   -4.256e-02   -2.156e-03  /
#      CHEB/ 6.617e-03    1.269e-03    -9.911e-04   -4.903e-04   1.669e-02   /
#      CHEB/ 4.651e-02    -2.688e-02   -1.408e-02   1.547e-03    2.360e-03   /
#      CHEB/ 2.989e-04    -2.686e-04   1.253e-02    6.811e-02    7.014e-03   /
#      CHEB/ -1.298e-02   -4.573e-03   4.412e-04    7.928e-04    2.636e-04   /
#  aQOOH[O](+M) <=> aQOOHg(+M)                         1.000e+00 0.000     0.000
#      TCHEB/ 180.000   1500.000 /
#      PCHEB/ 0.010     98.692   /
#      CHEB/ 10 8/
#      CHEB/ -3.123e+00   2.155e+00    -2.360e-01   -4.208e-03   -1.254e-03  /
#      CHEB/ 7.204e-03    -2.763e-03   -2.305e-04   -4.710e+00   1.222e+00   /
#      CHEB/ 2.225e-01    -8.275e-02   2.086e-02    -6.470e-03   -3.165e-04  /
#      CHEB/ 1.387e-03    -3.789e+00   -1.012e-01   -8.223e-02   5.122e-02   /
#      CHEB/ 9.826e-03    -9.188e-03   6.133e-04    7.432e-04    -1.801e+00  /
#      CHEB/ -2.291e-01   -1.891e-01   2.671e-02    1.243e-03    8.648e-04   /
#      CHEB/ 1.464e-03    -1.502e-03   -7.118e-01   -3.767e-02   -9.672e-02  /
#      CHEB/ -1.097e-02   -9.278e-03   5.979e-03    1.906e-03    -1.535e-03  /