units(length='cm', time='s', quantity='mol', act_energy='kcal/mol')

ideal_gas(name='gas',
          elements="H D T C Ci O Oi N Ne Ar He Si S F Cl Br I X",
          species="""OH             bQOOH[O]       acetone
                     H2O            balkoxyketone  ibutenol
                     trisub_epoxy   bQOOHg         CH2O
                     galkene        O2             bR
                     bQOOHa         bRO2           disub_epoxy
                     HO2""",
          reactions='all',
          initial_state=state(temperature=300.0, pressure=OneAtm))

#-------------------------------------------------------------------------------
# Element data
#-------------------------------------------------------------------------------

element(symbol='Ci', atomic_mass=13.003)
element(symbol='D', atomic_mass=2.014)
element(symbol='Oi', atomic_mass=18.0)
element(symbol='T', atomic_mass=3.016)
element(symbol='X', atomic_mass=195.083)
#-------------------------------------------------------------------------------
# Species data
#-------------------------------------------------------------------------------

species(name='OH',
        atoms='H:1 O:1',
        thermo=(NASA([10.00, 984.14],
                     [ 3.49686242E+00,  1.83973160E-04, -9.97634499E-07,
                       1.56942783E-09, -6.10128175E-13,  3.41673934E+03,
                       1.48093120E+00]),
                NASA([984.14, 3000.00],
                     [ 3.45221464E+00, -2.95124034E-04,  7.39418622E-07,
                      -2.89309866E-10,  3.53041498E-14,  3.45751599E+03,
                       1.85813897E+00])))

species(name='bQOOH[O]',
        atoms='C:4 H:9 O:3',
        thermo=(NASA([10.00, 338.69],
                     [ 3.60915854E+00,  3.39069566E-02,  2.22227265E-04,
                      -8.23527342E-07,  8.56246333E-10, -2.17382149E+04,
                       1.23284605E+01]),
                NASA([338.69, 3000.00],
                     [ 5.03198881E+00,  5.46235886E-02, -3.56935806E-05,
                       1.12371751E-08, -1.35390171E-12, -2.20497976E+04,
                       3.82760723E+00])))

species(name='acetone',
        atoms='C:3 H:6 O:1',
        thermo=(NASA([10.00, 414.35],
                     [ 3.73496166E+00,  3.05743218E-02, -1.26253585E-04,
                       3.66080978E-07, -3.31430437E-10, -2.91441613E+04,
                       8.24936012E+00]),
                NASA([414.35, 3000.00],
                     [ 1.70010292E-01,  3.28431468E-02, -1.80960132E-05,
                       4.82960690E-09, -5.02388538E-13, -2.85727782E+04,
                       2.56372653E+01])))

species(name='H2O',
        atoms='H:2 O:1',
        thermo=(NASA([10.00, 773.84],
                     [ 4.00473541E+00, -2.39729134E-04,  8.11862955E-07,
                       1.47891862E-09, -1.19783539E-12, -3.03533807E+04,
                      -9.96254147E-02]),
                NASA([773.84, 3000.00],
                     [ 3.52133374E+00,  1.05377009E-03,  6.40722099E-07,
                      -3.86240235E-10,  5.49243294E-14, -3.02424794E+04,
                       2.34173094E+00])))

species(name='balkoxyketone',
        atoms='C:4 H:7 O:2',
        thermo=(NASA([10.00, 269.93],
                     [ 3.81931151E+00,  1.68519318E-02,  2.42742224E-04,
                      -9.64821161E-07,  1.18509335E-09, -2.01065727E+04,
                       1.20521854E+01]),
                NASA([269.93, 3000.00],
                     [ 3.57555944E+00,  4.28868089E-02, -2.65390705E-05,
                       7.99659117E-09, -9.32983470E-13, -2.01751008E+04,
                       1.13957990E+01])))

species(name='ibutenol',
        atoms='C:4 H:8 O:1',
        thermo=(NASA([10.00, 135.97],
                     [ 3.95714996E+00,  5.72646980E-03,  4.63611760E-04,
                      -3.04137514E-06,  6.85019471E-09, -2.41754983E+04,
                       8.21931848E+00]),
                NASA([135.97, 3000.00],
                     [ 3.32467612E+00,  3.69033556E-02, -1.89960416E-05,
                       4.73417677E-09, -4.59705291E-13, -2.41699197E+04,
                       9.58133237E+00])))

species(name='trisub_epoxy',
        atoms='C:4 H:8 O:2',
        thermo=(NASA([10.00, 209.19],
                     [ 3.75295042E+00,  2.37546930E-02,  1.26610110E-04,
                      -4.78364365E-07,  5.79468168E-10, -3.94734637E+04,
                       1.12739684E+01]),
                NASA([209.19, 3000.00],
                     [ 2.64185254E+00,  4.50006531E-02, -2.57361066E-05,
                       7.15266054E-09, -7.72980731E-13, -3.94269781E+04,
                       1.48960343E+01])))

species(name='bQOOHg',
        atoms='C:4 H:9 O:3',
        thermo=(NASA([10.00, 441.09],
                     [ 3.56595280E+00,  3.36073467E-02,  2.03462772E-04,
                      -5.98977617E-07,  4.83271168E-10, -2.29069519E+04,
                       1.33537891E+01]),
                NASA([441.09, 3000.00],
                     [ 6.09031192E+00,  5.80517622E-02, -4.06392697E-05,
                       1.32574026E-08, -1.62501077E-12, -2.35901374E+04,
                      -1.97849715E+00])))

species(name='CH2O',
        atoms='C:1 H:2 O:1',
        thermo=(NASA([10.00, 601.31],
                     [ 4.03190845E+00, -1.93233367E-03,  8.89743345E-06,
                       2.98105926E-09, -7.90813886E-12, -1.42276270E+04,
                       3.47574660E+00]),
                NASA([601.31, 3000.00],
                     [ 1.40134195E+00,  9.48858016E-03, -4.43088317E-06,
                       9.48452194E-10, -7.43790219E-14, -1.38013869E+04,
                       1.57423780E+01])))

species(name='galkene',
        atoms='C:4 H:8 O:1',
        thermo=(NASA([10.00, 383.47],
                     [ 3.84035604E+00,  1.20378740E-02,  1.87486319E-04,
                      -5.44759148E-07,  4.80711015E-10, -2.00452923E+04,
                       1.02570291E+01]),
                NASA([383.47, 3000.00],
                     [ 4.00413385E+00,  3.79025144E-02, -2.15435710E-05,
                       6.15213311E-09, -6.97446345E-13, -2.02605816E+04,
                       6.98052628E+00])))

species(name='O2',
        atoms='O:2',
        thermo=(NASA([10.00, 605.96],
                     [ 3.50743498E+00, -4.43860349E-04,  1.45938058E-06,
                       1.61509333E-09, -2.32050052E-12, -9.24756224E+02,
                       4.72183634E+00]),
                NASA([605.96, 3000.00],
                     [ 2.87462882E+00,  2.17840991E-03, -1.18262921E-06,
                       2.86910493E-10, -2.53297146E-14, -8.19517838E+02,
                       7.69331810E+00])))

species(name='bR',
        atoms='C:4 H:9 O:1',
        thermo=(NASA([10.00, 483.43],
                     [ 3.38164846E+00,  5.97142637E-02, -1.58320095E-04,
                       3.04908893E-07, -2.13091806E-10, -1.11120267E+04,
                       1.09226843E+01]),
                NASA([483.43, 3000.00],
                     [ 2.33428824E+00,  4.22094427E-02, -2.28029290E-05,
                       6.04614564E-09, -6.30240159E-13, -1.07049447E+04,
                       1.83772893E+01])))

species(name='bQOOHa',
        atoms='C:4 H:9 O:3',
        thermo=(NASA([10.00, 390.53],
                     [ 3.54969236E+00,  3.76592474E-02,  1.76622653E-04,
                      -5.98063750E-07,  5.45069236E-10, -2.84231561E+04,
                       1.31518761E+01]),
                NASA([390.53, 3000.00],
                     [ 5.33564209E+00,  5.64935715E-02, -3.83214298E-05,
                       1.22990604E-08, -1.49549987E-12, -2.88457661E+04,
                       2.59015836E+00])))

species(name='bRO2',
        atoms='C:4 H:9 O:3',
        thermo=(NASA([10.00, 461.39],
                     [ 3.53964713E+00,  3.88723795E-02,  9.57420148E-05,
                      -2.80380499E-07,  2.09647462E-10, -3.20420067E+04,
                       1.18803618E+01]),
                NASA([461.39, 3000.00],
                     [ 3.47201723E+00,  6.00510247E-02, -4.00567321E-05,
                       1.25663813E-08, -1.49496682E-12, -3.22549535E+04,
                       9.77903975E+00])))

species(name='disub_epoxy',
        atoms='C:4 H:8 O:2',
        thermo=(NASA([10.00, 549.41],
                     [ 3.89863211E+00,  5.97532637E-03,  1.66685676E-04,
                      -3.10743768E-07,  1.78330192E-10, -3.68579991E+04,
                       1.13847308E+01]),
                NASA([549.41, 3000.00],
                     [-6.40277648E-01,  6.05960003E-02, -4.13427220E-05,
                       1.31555461E-08, -1.57685017E-12, -3.66848823E+04,
                       2.76005436E+01])))

species(name='HO2',
        atoms='H:1 O:2',
        thermo=(NASA([10.00, 891.11],
                     [ 4.02887004E+00, -1.75769289E-03,  1.08726004E-05,
                      -1.13812972E-08,  3.90113097E-12,  4.95165001E+02,
                       4.69302008E+00]),
                NASA([891.11, 3000.00],
                     [ 3.06571044E+00,  4.28505005E-03, -2.19325920E-06,
                       5.58882699E-10, -5.61246669E-14,  5.98557610E+02,
                       8.84564156E+00])))

#-------------------------------------------------------------------------------
# Reaction data
#-------------------------------------------------------------------------------

# Reaction 1
chebyshev_reaction('bQOOHg (+ M) <=> bRO2 (+ M)',
                   Tmin=180.0, Tmax=1500.0,
                   Pmin=(0.01, 'atm'), Pmax=(98.692, 'atm'),
                   coeffs=[[ 5.25600e+00,  6.02500e-01, -1.14000e-01, -3.50300e-03,  2.78700e-03, -6.06300e-05,  3.59500e-06,  1.93800e-05],
                           [ 1.16400e+00,  1.07300e+00, -1.86900e-01, -1.10200e-02,  4.45600e-03,  1.92800e-04,  2.28200e-05,  2.13000e-05],
                           [ 5.23100e-02,  7.52300e-01, -9.28800e-02, -1.76300e-02,  1.37800e-03,  8.24200e-04,  8.67600e-05, -1.19900e-05],
                           [-2.58000e-01,  4.03700e-01, -6.13500e-03, -1.77800e-02, -2.32000e-03,  1.07500e-03,  2.11900e-04, -2.28700e-05],
                           [-2.36600e-01,  1.54700e-01,  3.48000e-02, -9.87900e-03, -4.48400e-03,  5.59600e-04,  3.16400e-04,  1.39000e-05],
                           [-1.31200e-01,  3.36700e-02,  3.37800e-02, -4.39700e-04, -3.90200e-03, -3.47800e-04,  2.68200e-04,  7.87500e-05],
                           [-5.39300e-02, -2.32800e-03,  1.69700e-02,  4.22700e-03, -1.54200e-03, -8.90000e-04,  5.12000e-05,  1.13600e-04],
                           [-1.85800e-02, -5.82200e-03,  4.29300e-03,  3.66500e-03,  5.25400e-04, -7.18300e-04, -1.76700e-04,  7.76900e-05],
                           [-6.27700e-03, -4.52500e-03, -8.20300e-05,  1.28600e-03,  1.14100e-03, -1.61900e-04, -2.41700e-04, -4.20700e-06],
                           [-2.01400e-03, -4.02800e-03, -3.10700e-04, -2.02100e-04,  6.80100e-04,  2.41400e-04, -1.32600e-04, -6.49400e-05]])

# Reaction 2
chebyshev_reaction('bQOOHa (+ M) <=> bRO2 (+ M)',
                   Tmin=180.0, Tmax=1500.0,
                   Pmin=(0.01, 'atm'), Pmax=(98.692, 'atm'),
                   coeffs=[[ 1.19200e-01,  7.16800e-01, -1.35300e-01, -2.25800e-03,  2.01600e-03, -1.22300e-04,  6.12400e-05,  4.75500e-05],
                           [ 5.06400e+00,  1.20300e+00, -1.96000e-01, -1.27100e-02,  2.34200e-03,  3.05800e-04,  1.31300e-04,  6.11800e-05],
                           [ 6.67100e-01,  7.01300e-01, -4.89900e-02, -2.29700e-02, -1.86800e-03,  1.02300e-03,  2.34400e-04,  1.30900e-05],
                           [-4.10700e-01,  2.75800e-01,  4.15800e-02, -1.68000e-02, -5.40800e-03,  4.70000e-04,  4.08900e-04,  4.47100e-05],
                           [-2.99800e-01,  8.13900e-02,  4.27100e-02, -6.45900e-04, -4.84700e-03, -1.05400e-03,  3.50400e-04,  1.50900e-04],
                           [-9.77500e-02,  3.67000e-02,  1.23700e-02,  7.68900e-03, -1.03400e-03, -1.78100e-03, -7.33900e-05,  1.94200e-04],
                           [-3.43600e-02,  2.31300e-02, -1.11600e-03,  4.84100e-03,  1.84900e-03, -9.65200e-04, -4.77900e-04,  7.95500e-05],
                           [-2.50400e-02,  5.10600e-03,  1.37200e-03, -6.15300e-05,  1.81800e-03,  2.59600e-04, -4.51300e-04, -9.31800e-05],
                           [-1.38800e-02, -5.51900e-03,  3.70700e-03, -1.38200e-03,  4.96000e-04,  6.85000e-04, -1.12500e-04, -1.53700e-04],
                           [-2.82400e-03, -5.37900e-03,  2.12600e-03, -5.78700e-04, -2.47400e-04,  3.89400e-04,  1.35400e-04, -8.08900e-05]])

# Reaction 3
chebyshev_reaction('bQOOH[O] (+ M) <=> bRO2 (+ M)',
                   Tmin=180.0, Tmax=1500.0,
                   Pmin=(0.01, 'atm'), Pmax=(98.692, 'atm'),
                   coeffs=[[ 9.64700e+00,  1.85700e+00, -2.16500e-01, -5.98200e-02, -9.50500e-03,  3.93900e-03,  2.98600e-03,  4.85500e-04],
                           [-8.60700e-01,  4.40800e-01, -4.42200e-03,  2.41700e-02, -2.90700e-03, -5.50700e-03, -1.62900e-03,  2.88300e-04],
                           [-5.07400e-01,  3.04200e-01, -2.00000e-02,  1.35800e-02,  2.54200e-03, -1.91700e-03, -1.12000e-03, -2.43600e-04],
                           [-3.10200e-01,  2.09500e-01, -8.64200e-03,  4.51300e-03,  2.77800e-03, -7.88400e-04, -6.47000e-04, -1.68400e-04],
                           [-1.90300e-01,  1.25000e-01,  2.45300e-04, -1.10400e-03,  2.24500e-03,  8.33500e-05, -3.13400e-04, -1.21700e-04],
                           [-1.04200e-01,  6.23300e-02,  3.97700e-03, -3.14800e-03,  1.25400e-03,  6.04600e-04, -6.61300e-05, -9.21800e-05],
                           [-5.33400e-02,  2.69800e-02,  5.75500e-03, -2.78800e-03,  1.06900e-05,  5.43900e-04,  9.39600e-05, -2.00900e-05],
                           [-2.24100e-02,  6.78500e-03,  4.84100e-03, -1.55500e-03, -4.91900e-04,  3.37100e-04,  1.32200e-04,  5.32900e-06],
                           [-9.91000e-03, -3.34000e-04,  4.02400e-03, -4.69700e-04, -6.51300e-04,  5.68000e-05,  1.09900e-04,  2.65100e-05],
                           [-2.72500e-03, -3.30900e-03,  2.23700e-03,  1.67800e-04, -3.90200e-04, -5.28100e-05,  5.69300e-05,  1.69600e-05]])

# Reaction 4
chebyshev_reaction('O2 + bR (+ M) <=> bRO2 (+ M)',
                   Tmin=180.0, Tmax=1500.0,
                   Pmin=(0.01, 'atm'), Pmax=(98.692, 'atm'),
                   coeffs=[[ 1.29500e+01,  5.78000e-01, -1.69200e-01,  3.32900e-02, -4.18900e-03, -1.03400e-03,  7.56100e-04, -1.71100e-04],
                           [-7.42700e-01,  6.49100e-01, -7.40700e-02, -2.81200e-02,  1.22000e-02, -2.10600e-03, -4.64400e-04,  4.59700e-04],
                           [-3.47300e-01,  2.80300e-01,  4.24500e-02, -3.24900e-02, -4.56800e-04,  3.58800e-03, -1.07100e-03, -7.11300e-05],
                           [-2.26800e-01,  1.39900e-01,  3.95400e-02, -1.06400e-02, -5.66200e-03,  1.92600e-03,  3.01100e-04, -3.44800e-04],
                           [-1.51800e-01,  8.55900e-02,  1.78500e-02, -3.93400e-04, -2.57600e-03, -5.28600e-04,  4.57700e-04, -5.18600e-06],
                           [-8.65700e-02,  3.78700e-02,  1.05500e-02,  1.26600e-03, -4.87500e-04, -6.32200e-04,  7.38000e-06,  1.13100e-04],
                           [-3.49700e-02, -6.32300e-04,  9.08000e-03,  1.91500e-03, -5.37500e-04, -1.02400e-04, -7.10900e-05, -3.22100e-06],
                           [-6.86900e-03, -1.55100e-02,  5.00900e-03,  2.68900e-03, -5.91100e-04, -6.24800e-05,  6.86100e-05, -5.48000e-05],
                           [ 3.20800e-03, -1.45900e-02,  1.19400e-03,  2.11700e-03, -1.18600e-04, -1.45100e-04,  7.20600e-05, -1.14400e-05],
                           [ 3.61100e-03, -7.68100e-03, -9.47200e-04,  9.49800e-04,  2.53100e-04, -9.68700e-05,  3.64800e-06,  1.75100e-05]])
#  bRO2(+M) <=> bQOOHg(+M)                             1.000e+00 0.000     0.000
#      TCHEB/ 180.000   1500.000 /
#      PCHEB/ 0.010     98.692   /
#      CHEB/ 10 8/
#      CHEB/ -6.134e+00   6.025e-01    -1.140e-01   -3.503e-03   2.787e-03   /
#      CHEB/ -6.063e-05   3.595e-06    1.938e-05    1.126e+01    1.073e+00   /
#      CHEB/ -1.869e-01   -1.102e-02   4.456e-03    1.928e-04    2.282e-05   /
#      CHEB/ 2.130e-05    1.981e-01    7.523e-01    -9.288e-02   -1.763e-02  /
#      CHEB/ 1.378e-03    8.242e-04    8.676e-05    -1.199e-05   -2.209e-01  /
#      CHEB/ 4.037e-01    -6.135e-03   -1.778e-02   -2.320e-03   1.075e-03   /
#      CHEB/ 2.119e-04    -2.287e-05   -2.308e-01   1.547e-01    3.480e-02   /
#      CHEB/ -9.879e-03   -4.484e-03   5.596e-04    3.164e-04    1.390e-05   /
#      CHEB/ -1.314e-01   3.367e-02    3.378e-02    -4.397e-04   -3.902e-03  /
#      CHEB/ -3.478e-04   2.682e-04    7.875e-05    -5.451e-02   -2.328e-03  /
#      CHEB/ 1.697e-02    4.227e-03    -1.542e-03   -8.900e-04   5.120e-05   /
#      CHEB/ 1.136e-04    -1.903e-02   -5.822e-03   4.293e-03    3.665e-03   /
#      CHEB/ 5.254e-04    -7.183e-04   -1.767e-04   7.769e-05    -6.601e-03  /
#      CHEB/ -4.525e-03   -8.203e-05   1.286e-03    1.141e-03    -1.619e-04  /
#      CHEB/ -2.417e-04   -4.207e-06   -2.201e-03   -4.028e-03   -3.107e-04  /
#      CHEB/ -2.021e-04   6.801e-04    2.414e-04    -1.326e-04   -6.494e-05  /

# Reaction 5
chebyshev_reaction('bQOOHa (+ M) <=> bQOOHg (+ M)',
                   Tmin=180.0, Tmax=1500.0,
                   Pmin=(0.01, 'atm'), Pmax=(98.692, 'atm'),
                   coeffs=[[-9.05900e+00, -4.36200e-01, -2.88400e-01,  8.21600e-04,  2.40100e-03, -1.66500e-04,  1.88500e-04,  3.09700e-05],
                           [ 1.08000e+01,  2.31000e+00, -2.85200e-01, -4.98600e-02,  6.18900e-03,  1.12000e-03, -2.80600e-05,  1.00500e-04],
                           [ 2.43200e-01,  1.04600e+00,  3.95500e-02, -5.21000e-02, -9.11900e-03,  2.85500e-03,  5.40400e-04, -8.61800e-05],
                           [-3.71100e-01,  3.01800e-01,  1.13500e-01, -1.06200e-02, -1.33100e-02, -8.43600e-04,  1.01500e-03,  1.55000e-04],
                           [-1.22800e-01,  6.08700e-02,  6.09600e-02,  1.12100e-02, -4.05700e-03, -3.10300e-03, -5.69700e-05,  3.70700e-04],
                           [-4.14700e-02,  5.64700e-03,  2.03000e-02,  7.89500e-03,  2.44000e-03, -1.32900e-03, -8.62400e-04,  6.21100e-05],
                           [-4.33800e-02, -8.42100e-03,  5.93800e-03,  2.14700e-03,  2.13100e-03,  5.07000e-04, -4.42900e-04, -2.31600e-04],
                           [-3.37700e-02, -1.05400e-02,  1.40300e-03,  2.92500e-04,  4.70500e-04,  6.15100e-04,  1.14200e-04, -1.42800e-04],
                           [-2.18500e-02, -8.40300e-03,  6.23700e-06,  3.47200e-05, -1.90700e-04,  1.95200e-04,  1.80900e-04,  2.52700e-05],
                           [-5.91600e-03, -6.88800e-03,  4.68700e-04, -9.72600e-05, -2.92700e-04,  3.02300e-05,  5.42100e-05,  4.76000e-05]])

# Reaction 6
chebyshev_reaction('bQOOH[O] (+ M) <=> bQOOHg (+ M)',
                   Tmin=180.0, Tmax=1500.0,
                   Pmin=(0.01, 'atm'), Pmax=(98.692, 'atm'),
                   coeffs=[[ 1.42400e+00,  4.49100e-01, -3.24900e-01, -5.92300e-02, -5.17000e-03,  4.59100e-03,  2.72800e-03,  1.83500e-04],
                           [ 2.88200e+00,  1.47200e+00, -1.27200e-01,  1.33900e-02, -4.18700e-05, -5.95400e-03, -1.89600e-03,  3.58000e-04],
                           [ 8.38100e-02,  8.69200e-01, -1.27700e-02, -1.33700e-02,  2.12500e-03, -9.33500e-04, -1.25900e-03, -2.15500e-04],
                           [-2.95500e-01,  3.54600e-01,  5.69700e-02, -1.91200e-02, -1.09700e-03,  1.89600e-03, -1.88000e-04, -3.70400e-04],
                           [-1.27500e-01,  9.63400e-02,  5.58300e-02, -7.13800e-03, -4.39300e-03,  1.19300e-03,  6.85500e-04, -8.84500e-05],
                           [-4.93900e-02,  1.11400e-02,  2.48200e-02,  3.21000e-03, -2.72700e-03, -4.54100e-04,  5.94100e-04,  1.51700e-04],
                           [-3.98300e-02, -1.29700e-04,  7.90800e-03,  4.38400e-03, -3.52000e-04, -1.18900e-03,  3.42700e-05,  2.66900e-04],
                           [-3.88900e-02, -6.63300e-03,  2.43600e-03,  1.94400e-03,  9.39400e-04, -4.90400e-04, -3.60700e-04,  8.35300e-05],
                           [-1.95400e-02, -6.95800e-03,  2.33900e-03,  3.47400e-04,  3.87800e-04,  1.15900e-04, -2.53700e-04, -6.20700e-05],
                           [-1.25500e-02, -1.07500e-02, -8.66400e-04,  8.09100e-05,  3.79600e-04,  4.43600e-04, -5.14700e-05, -1.54900e-04]])

# Reaction 7
chebyshev_reaction('O2 + bR (+ M) <=> bQOOHg (+ M)',
                   Tmin=180.0, Tmax=1500.0,
                   Pmin=(0.01, 'atm'), Pmax=(98.692, 'atm'),
                   coeffs=[[ 8.02200e+00, -4.70600e-01, -3.94500e-01,  5.32400e-02, -1.33900e-03, -4.23300e-03,  1.81700e-03, -9.28100e-06],
                           [ 4.95800e-01,  1.46900e+00, -4.94300e-02, -1.02200e-01,  1.70700e-02,  3.81700e-03, -2.49600e-03,  5.37200e-04],
                           [-3.48300e-02,  5.24700e-01,  1.36900e-01, -5.03600e-02, -1.68700e-02,  6.66900e-03,  7.76300e-04, -7.63200e-04],
                           [-7.27000e-02,  1.58500e-01,  9.34000e-02,  4.15300e-03, -1.54200e-02, -1.43900e-03,  1.97500e-03,  5.70400e-05],
                           [-1.94700e-02,  5.29300e-02,  3.31800e-02,  1.46000e-02, -2.74100e-03, -3.80100e-03,  1.69800e-04,  5.81300e-04],
                           [-1.50500e-02,  1.04400e-02,  8.90800e-03,  8.19800e-03,  2.25000e-03, -1.59300e-03, -7.93800e-04,  2.12200e-04],
                           [-2.07100e-02, -1.61800e-02,  3.68500e-03,  3.60300e-03,  1.40500e-03,  1.21800e-04, -4.48400e-04, -1.46400e-04],
                           [-1.93400e-02, -2.07100e-02, -2.80700e-04,  2.32600e-03,  3.84000e-04,  2.33800e-04,  2.27400e-05, -1.40900e-04],
                           [-7.84200e-03, -1.52900e-02, -1.92300e-03,  1.17200e-03,  1.87500e-04,  4.89100e-05,  1.05900e-04, -2.81700e-05],
                           [-4.39100e-03, -6.28800e-03, -2.25000e-03,  1.91200e-04,  2.32600e-04, -2.96400e-05,  3.98300e-05,  2.81400e-05]])
#  bRO2(+M) <=> bQOOHa(+M)                             1.000e+00 0.000     0.000
#      TCHEB/ 180.000   1500.000 /
#      PCHEB/ 0.010     98.692   /
#      CHEB/ 10 8/
#      CHEB/ -3.922e+00   7.168e-01    -1.353e-01   -2.258e-03   2.016e-03   /
#      CHEB/ -1.223e-04   6.124e-05    4.755e-05    9.151e+00    1.203e+00   /
#      CHEB/ -1.960e-01   -1.271e-02   2.342e-03    3.058e-04    1.313e-04   /
#      CHEB/ 6.118e-05    7.221e-01    7.013e-01    -4.899e-02   -2.297e-02  /
#      CHEB/ -1.868e-03   1.023e-03    2.344e-04    1.309e-05    -4.094e-01  /
#      CHEB/ 2.758e-01    4.158e-02    -1.680e-02   -5.408e-03   4.700e-04   /
#      CHEB/ 4.089e-04    4.471e-05    -3.046e-01   8.139e-02    4.271e-02   /
#      CHEB/ -6.459e-04   -4.847e-03   -1.054e-03   3.504e-04    1.509e-04   /
#      CHEB/ -1.005e-01   3.670e-02    1.237e-02    7.689e-03    -1.034e-03  /
#      CHEB/ -1.781e-03   -7.339e-05   1.942e-04    -3.570e-02   2.313e-02   /
#      CHEB/ -1.116e-03   4.841e-03    1.849e-03    -9.652e-04   -4.779e-04  /
#      CHEB/ 7.955e-05    -2.576e-02   5.106e-03    1.372e-03    -6.153e-05  /
#      CHEB/ 1.818e-03    2.596e-04    -4.513e-04   -9.318e-05   -1.423e-02  /
#      CHEB/ -5.519e-03   3.707e-03    -1.382e-03   4.960e-04    6.850e-04   /
#      CHEB/ -1.125e-04   -1.537e-04   -2.943e-03   -5.379e-03   2.126e-03   /
#      CHEB/ -5.787e-04   -2.474e-04   3.894e-04    1.354e-04    -8.089e-05  /
#  bQOOHg(+M) <=> bQOOHa(+M)                           1.000e+00 0.000     0.000
#      TCHEB/ 180.000   1500.000 /
#      PCHEB/ 0.010     98.692   /
#      CHEB/ 10 8/
#      CHEB/ -1.710e+00   -4.362e-01   -2.884e-01   8.216e-04    2.401e-03   /
#      CHEB/ -1.665e-04   1.885e-04    3.097e-05    4.793e+00    2.310e+00   /
#      CHEB/ -2.852e-01   -4.986e-02   6.189e-03    1.120e-03    -2.806e-05  /
#      CHEB/ 1.005e-04    1.525e-01    1.046e+00    3.955e-02    -5.210e-02  /
#      CHEB/ -9.119e-03   2.855e-03    5.404e-04    -8.618e-05   -4.070e-01  /
#      CHEB/ 3.018e-01    1.135e-01    -1.062e-02   -1.331e-02   -8.436e-04  /
#      CHEB/ 1.015e-03    1.550e-04    -1.334e-01   6.087e-02    6.096e-02   /
#      CHEB/ 1.121e-02    -4.057e-03   -3.103e-03   -5.697e-05   3.707e-04   /
#      CHEB/ -4.409e-02   5.647e-03    2.030e-02    7.895e-03    2.440e-03   /
#      CHEB/ -1.329e-03   -8.624e-04   6.211e-05    -4.415e-02   -8.421e-03  /
#      CHEB/ 5.938e-03    2.147e-03    2.131e-03    5.070e-04    -4.429e-04  /
#      CHEB/ -2.316e-04   -3.404e-02   -1.054e-02   1.403e-03    2.925e-04   /
#      CHEB/ 4.705e-04    6.151e-04    1.142e-04    -1.428e-04   -2.188e-02  /
#      CHEB/ -8.403e-03   6.237e-06    3.472e-05    -1.907e-04   1.952e-04   /
#      CHEB/ 1.809e-04    2.527e-05    -5.849e-03   -6.888e-03   4.687e-04   /
#      CHEB/ -9.726e-05   -2.927e-04   3.023e-05    5.421e-05    4.760e-05   /

# Reaction 8
chebyshev_reaction('bQOOH[O] (+ M) <=> bQOOHa (+ M)',
                   Tmin=180.0, Tmax=1500.0,
                   Pmin=(0.01, 'atm'), Pmax=(98.692, 'atm'),
                   coeffs=[[ 2.53900e+00,  6.34100e-01, -3.78100e-01, -4.97600e-02, -7.73000e-03,  4.66600e-03,  2.90100e-03,  1.82600e-04],
                           [ 2.35100e+00,  1.54100e+00, -9.89400e-02, -6.39500e-03,  2.12200e-03, -6.01700e-03, -1.92700e-03,  4.50100e-04],
                           [-1.03300e-01,  7.25800e-01,  6.48400e-02, -2.07300e-02, -3.84000e-03, -2.14400e-04, -1.05500e-03, -2.31900e-04],
                           [-3.55100e-01,  2.44400e-01,  7.68700e-02, -1.93700e-03, -6.11300e-03, -1.12100e-04,  3.70900e-04, -2.67500e-04],
                           [-1.27000e-01,  8.88400e-02,  2.87600e-02,  9.02900e-03, -1.37600e-03, -1.81200e-03,  3.72900e-04,  2.30000e-04],
                           [-4.86100e-02,  3.22400e-02,  5.10000e-03,  4.01400e-03,  3.04900e-03, -9.43700e-04, -4.93100e-04,  2.33300e-04],
                           [-4.71500e-02,  7.91900e-03,  4.88000e-03, -9.64400e-04,  1.95900e-03,  4.63200e-04, -5.63500e-04, -4.25100e-05],
                           [-3.75600e-02, -5.21600e-03,  4.70100e-03, -1.28200e-03,  1.83200e-04,  8.12700e-04, -1.15500e-04, -2.02400e-04],
                           [-2.58300e-02, -5.38500e-03,  3.57700e-03, -2.19900e-04, -7.09600e-04,  3.14400e-04,  1.86600e-04, -8.98800e-05],
                           [-9.29500e-03, -1.01300e-02,  4.29500e-04,  2.01900e-04, -1.34000e-04,  1.62300e-04,  1.35600e-04, -3.87000e-05]])

# Reaction 9
chebyshev_reaction('O2 + bR (+ M) <=> bQOOHa (+ M)',
                   Tmin=180.0, Tmax=1500.0,
                   Pmin=(0.01, 'atm'), Pmax=(98.692, 'atm'),
                   coeffs=[[ 8.76800e+00, -9.35800e-02, -4.39800e-01,  1.25600e-02,  1.47100e-02, -2.58700e-04, -2.14300e-03, -8.50700e-05],
                           [ 1.69100e-01,  1.20200e+00,  6.11200e-02, -6.84400e-02, -1.24000e-02,  1.23300e-03,  3.46100e-03,  5.10600e-05],
                           [-2.34000e-01,  4.96200e-01,  1.30800e-01, -3.24800e-02, -1.31000e-02,  1.47500e-03, -1.85100e-05,  2.82200e-04],
                           [-1.01000e-01,  1.06200e-01,  7.59600e-02,  1.55500e-02, -7.06500e-03, -3.65300e-03, -3.95700e-04,  5.06800e-04],
                           [-4.28800e-02,  6.32500e-02,  2.17800e-02,  9.01600e-03,  1.60900e-03, -8.85900e-04, -7.71400e-04, -3.62800e-04],
                           [-2.25600e-02,  1.88300e-02,  5.62200e-03,  3.54900e-03,  2.47900e-03,  3.34700e-04, -3.59300e-04, -2.66800e-04],
                           [-2.54800e-02, -1.41500e-02,  4.54400e-03,  2.15500e-03,  1.33100e-04,  4.70600e-04,  2.36900e-04, -8.61500e-05],
                           [-1.70100e-02, -2.07600e-02,  1.29800e-03,  2.27400e-03, -4.91300e-04, -3.49900e-06,  2.94700e-04,  4.53300e-05],
                           [-1.66300e-02, -1.21700e-02, -1.28300e-03,  1.02200e-03, -1.49800e-05, -1.14300e-04,  8.15400e-05,  5.32200e-05],
                           [-2.73100e-05, -8.43500e-03, -1.50500e-03,  8.18000e-04,  9.53000e-05, -2.45300e-04,  1.57700e-05,  7.28800e-05]])
#  bRO2(+M) <=> bQOOH[O](+M)                           1.000e+00 0.000     0.000
#      TCHEB/ 180.000   1500.000 /
#      PCHEB/ 0.010     98.692   /
#      CHEB/ 10 8/
#      CHEB/ -3.837e+00   1.857e+00    -2.165e-01   -5.982e-02   -9.505e-03  /
#      CHEB/ 3.939e-03    2.986e-03    4.855e-04    1.020e+01    4.408e-01   /
#      CHEB/ -4.422e-03   2.417e-02    -2.907e-03   -5.507e-03   -1.629e-03  /
#      CHEB/ 2.883e-04    -5.133e-01   3.042e-01    -2.000e-02   1.358e-02   /
#      CHEB/ 2.542e-03    -1.917e-03   -1.120e-03   -2.436e-04   -3.313e-01  /
#      CHEB/ 2.095e-01    -8.642e-03   4.513e-03    2.778e-03    -7.884e-04  /
#      CHEB/ -6.470e-04   -1.684e-04   -2.010e-01   1.250e-01    2.453e-04   /
#      CHEB/ -1.104e-03   2.245e-03    8.335e-05    -3.134e-04   -1.217e-04  /
#      CHEB/ -1.082e-01   6.233e-02    3.977e-03    -3.148e-03   1.254e-03   /
#      CHEB/ 6.046e-04    -6.613e-05   -9.218e-05   -5.485e-02   2.698e-02   /
#      CHEB/ 5.755e-03    -2.788e-03   1.069e-05    5.439e-04    9.396e-05   /
#      CHEB/ -2.009e-05   -2.304e-02   6.785e-03    4.841e-03    -1.555e-03  /
#      CHEB/ -4.919e-04   3.371e-04    1.322e-04    5.329e-06    -1.009e-02  /
#      CHEB/ -3.340e-04   4.024e-03    -4.697e-04   -6.513e-04   5.680e-05   /
#      CHEB/ 1.099e-04    2.651e-05    -2.719e-03   -3.309e-03   2.237e-03   /
#      CHEB/ 1.678e-04    -3.902e-04   -5.281e-05   5.693e-05    1.696e-05   /
#  bQOOHg(+M) <=> bQOOH[O](+M)                         1.000e+00 0.000     0.000
#      TCHEB/ 180.000   1500.000 /
#      PCHEB/ 0.010     98.692   /
#      CHEB/ 10 8/
#      CHEB/ -6.695e-01   4.491e-01    -3.249e-01   -5.923e-02   -5.170e-03  /
#      CHEB/ 4.591e-03    2.728e-03    1.835e-04    3.851e+00    1.472e+00   /
#      CHEB/ -1.272e-01   1.339e-02    -4.187e-05   -5.954e-03   -1.896e-03  /
#      CHEB/ 3.580e-04    -6.782e-02   8.692e-01    -1.277e-02   -1.337e-02  /
#      CHEB/ 2.125e-03    -9.335e-04   -1.259e-03   -2.155e-04   -3.537e-01  /