units(length='cm', time='s', quantity='mol', act_energy='kcal/mol')

ideal_gas(name='gas',
          elements="H D T C Ci O Oi N Ne Ar He Si S F Cl Br I X",
          species="""propene3ol       OH               disub_c4ether
                     H2O              disub_epoxy      gQOOHa
                     propene1ol       gQOOHb           ipropylOOH
                     galdoxy          galkene          CH2O
                     O2               gRO2             gQOOHg
                     gR               galdol           monosub_c4ether
                     HO2              gQOOH[O]""",
          reactions='all',
          initial_state=state(temperature=300.0, pressure=OneAtm))

#-------------------------------------------------------------------------------
# Element data
#-------------------------------------------------------------------------------

element(symbol='Ci', atomic_mass=13.003)
element(symbol='D', atomic_mass=2.014)
element(symbol='Oi', atomic_mass=18.0)
element(symbol='T', atomic_mass=3.016)
element(symbol='X', atomic_mass=195.083)
#-------------------------------------------------------------------------------
# Species data
#-------------------------------------------------------------------------------

species(name='propene3ol',
        atoms='C:3 H:6 O:1',
        thermo=(NASA([10.00, 444.81],
                     [ 3.92769709E+00,  4.89977303E-03,  1.13094874E-04,
                      -2.59008187E-07,  1.86205760E-10, -1.60047660E+04,
                       9.90805416E+00]),
                NASA([444.81, 3000.00],
                     [ 2.61720343E+00,  3.01777872E-02, -1.76511625E-05,
                       5.14864061E-09, -5.91153761E-13, -1.60216665E+04,
                       1.36683107E+01])))

species(name='OH',
        atoms='H:1 O:1',
        thermo=(NASA([10.00, 984.14],
                     [ 3.49686242E+00,  1.83973160E-04, -9.97634499E-07,
                       1.56942783E-09, -6.10128175E-13,  3.41673934E+03,
                       1.48093120E+00]),
                NASA([984.14, 3000.00],
                     [ 3.45221464E+00, -2.95124034E-04,  7.39418622E-07,
                      -2.89309866E-10,  3.53041498E-14,  3.45751599E+03,
                       1.85813897E+00])))

species(name='disub_c4ether',
        atoms='C:4 H:8 O:2',
        thermo=(NASA([10.00, 413.50],
                     [ 3.78241323E+00,  1.89501763E-02,  8.65302396E-05,
                      -1.80580575E-07,  1.13656264E-10, -3.76555601E+04,
                       1.09982450E+01]),
                NASA([413.50, 3000.00],
                     [ 4.29420885E-01,  5.13851903E-02, -3.11292293E-05,
                       9.11498284E-09, -1.03192718E-12, -3.73782658E+04,
                       2.42134976E+01])))

species(name='H2O',
        atoms='H:2 O:1',
        thermo=(NASA([10.00, 773.84],
                     [ 4.00473541E+00, -2.39729134E-04,  8.11862955E-07,
                       1.47891862E-09, -1.19783539E-12, -3.03533807E+04,
                      -9.96254147E-02]),
                NASA([773.84, 3000.00],
                     [ 3.52133374E+00,  1.05377009E-03,  6.40722099E-07,
                      -3.86240235E-10,  5.49243294E-14, -3.02424794E+04,
                       2.34173094E+00])))

species(name='disub_epoxy',
        atoms='C:4 H:8 O:2',
        thermo=(NASA([10.00, 549.41],
                     [ 3.89863211E+00,  5.97532637E-03,  1.66685676E-04,
                      -3.10743768E-07,  1.78330192E-10, -3.79525530E+04,
                       1.13847308E+01]),
                NASA([549.41, 3000.00],
                     [-6.40277648E-01,  6.05960003E-02, -4.13427220E-05,
                       1.31555461E-08, -1.57685017E-12, -3.77794361E+04,
                       2.76005436E+01])))

species(name='gQOOHa',
        atoms='C:4 H:9 O:3',
        thermo=(NASA([10.00, 160.74],
                     [ 3.80808147E+00,  2.31043884E-02,  5.26945984E-04,
                      -3.11500696E-06,  6.03881958E-09, -2.68555550E+04,
                       1.17645316E+01]),
                NASA([160.74, 3000.00],
                     [ 2.90630300E+00,  6.50241173E-02, -4.60073244E-05,
                       1.51330930E-08, -1.87074267E-12, -2.68517304E+04,
                       1.36838819E+01])))

species(name='propene1ol',
        atoms='C:3 H:6 O:1',
        thermo=(NASA([10.00, 459.42],
                     [ 3.91245344E+00,  5.85800161E-03,  1.15412006E-04,
                      -2.68014417E-07,  1.91800131E-10, -1.94130289E+04,
                       8.14807684E+00]),
                NASA([459.42, 3000.00],
                     [ 3.14049093E+00,  2.95550898E-02, -1.73843684E-05,
                       5.11506211E-09, -5.92966137E-13, -1.95212514E+04,
                       9.32215170E+00])))

species(name='gQOOHb',
        atoms='C:4 H:9 O:3',
        thermo=(NASA([10.00, 1018.67],
                     [ 3.99028351E+00,  4.29665712E-02,  2.28338778E-05,
                      -5.67914439E-08,  2.29383258E-11, -2.54105005E+04,
                       1.20326731E+01]),
                NASA([1018.67, 3000.00],
                     [ 1.38304153E+01,  3.88527019E-02, -2.19473905E-05,
                       5.78719895E-09, -5.85097740E-13, -2.92065853E+04,
                      -4.44147388E+01])))

species(name='ipropylOOH',
        atoms='C:3 H:7 O:2',
        thermo=(NASA([10.00, 405.01],
                     [ 3.30075623E+00,  7.58672756E-02, -3.35754269E-04,
                       8.05972164E-07, -6.68864582E-10, -5.91938487E+02,
                       1.43372849E+01]),
                NASA([405.01, 3000.00],
                     [ 2.51742509E+00,  3.72760950E-02, -2.12450220E-05,
                       5.83593926E-09, -6.22110649E-13, -1.48530881E+02,
                       2.20991392E+01])))

species(name='galdoxy',
        atoms='C:4 H:7 O:2',
        thermo=(NASA([10.00, 209.62],
                     [ 3.82641108E+00,  1.84758886E-02,  3.43073800E-04,
                      -1.82817005E-06,  2.98516720E-09, -1.60918626E+04,
                       1.17972706E+01]),
                NASA([209.62, 3000.00],
                     [ 4.22049016E+00,  4.03370149E-02, -2.36129482E-05,
                       6.72979114E-09, -7.47862493E-13, -1.61729324E+04,
                       8.97211724E+00])))

species(name='galkene',
        atoms='C:4 H:8 O:1',
        thermo=(NASA([10.00, 383.47],
                     [ 3.84035604E+00,  1.20378740E-02,  1.87486319E-04,
                      -5.44759148E-07,  4.80711015E-10, -1.90987524E+04,
                       1.02570291E+01]),
                NASA([383.47, 3000.00],
                     [ 4.00413385E+00,  3.79025144E-02, -2.15435710E-05,
                       6.15213311E-09, -6.97446345E-13, -1.93140417E+04,
                       6.98052628E+00])))

species(name='CH2O',
        atoms='C:1 H:2 O:1',
        thermo=(NASA([10.00, 601.31],
                     [ 4.03190845E+00, -1.93233367E-03,  8.89743345E-06,
                       2.98105926E-09, -7.90813886E-12, -1.42276270E+04,
                       3.47574660E+00]),
                NASA([601.31, 3000.00],
                     [ 1.40134195E+00,  9.48858016E-03, -4.43088317E-06,
                       9.48452194E-10, -7.43790219E-14, -1.38013869E+04,
                       1.57423780E+01])))

species(name='O2',
        atoms='O:2',
        thermo=(NASA([10.00, 605.96],
                     [ 3.50743498E+00, -4.43860349E-04,  1.45938058E-06,
                       1.61509333E-09, -2.32050052E-12, -9.24756224E+02,
                       4.72183634E+00]),
                NASA([605.96, 3000.00],
                     [ 2.87462882E+00,  2.17840991E-03, -1.18262921E-06,
                       2.86910493E-10, -2.53297146E-14, -8.19517838E+02,
                       7.69331810E+00])))

species(name='gRO2',
        atoms='C:4 H:9 O:3',
        thermo=(NASA([10.00, 177.33],
                     [ 3.70632176E+00,  3.49733664E-02,  4.64036392E-04,
                      -3.18637835E-06,  6.38178607E-09, -2.95094042E+04,
                       1.24459269E+01]),
                NASA([177.33, 3000.00],
                     [ 4.82062697E+00,  5.17179689E-02, -3.18386818E-05,
                       9.52247045E-09, -1.10180288E-12, -2.96147748E+04,
                       7.14082953E+00])))

species(name='gQOOHg',
        atoms='C:4 H:9 O:3',
        thermo=(NASA([10.00, 475.03],
                     [ 3.42273720E+00,  4.98344215E-02,  6.47820920E-05,
                      -2.49842966E-07,  1.98636537E-10, -1.99722865E+04,
                       1.41578583E+01]),
                NASA([475.03, 3000.00],
                     [ 5.94049074E+00,  5.53778585E-02, -3.71708255E-05,
                       1.17540477E-08, -1.40812095E-12, -2.05132408E+04,
                       7.09201218E-01])))

species(name='gR',
        atoms='C:4 H:9 O:1',
        thermo=(NASA([10.00, 638.24],
                     [ 3.37074633E+00,  5.17529751E-02, -6.54872940E-05,
                       6.88084237E-08, -3.21569794E-11, -1.11405173E+04,
                       1.14339669E+01]),
                NASA([638.24, 3000.00],
                     [ 3.99410860E+00,  4.06314915E-02, -2.23932510E-05,
                       6.08356263E-09, -6.49884708E-13, -1.10731426E+04,
                       9.85769960E+00])))

species(name='galdol',
        atoms='C:4 H:8 O:2',
        thermo=(NASA([10.00, 506.68],
                     [ 3.85380874E+00,  9.21272695E-03,  1.86712348E-04,
                      -3.96417049E-07,  2.55528268E-10, -4.59195615E+04,
                       1.24312743E+01]),
                NASA([506.68, 3000.00],
                     [ 1.49710213E+00,  5.65979142E-02, -3.87709084E-05,
                       1.23682052E-08, -1.48287964E-12, -4.60501709E+04,
                       1.85531759E+01])))

species(name='monosub_c4ether',
        atoms='C:4 H:8 O:2',
        thermo=(NASA([10.00, 380.36],
                     [ 3.47743996E+00,  6.08051311E-02, -2.78518945E-04,
                       8.23182713E-07, -7.87158031E-10, -3.21715986E+04,
                       1.06415154E+01]),
                NASA([380.36, 3000.00],
                     [-1.09346901E+00,  5.35985968E-02, -3.21081420E-05,
                       9.20818293E-09, -1.01830294E-12, -3.14240386E+04,
                       3.35312368E+01])))

species(name='HO2',
        atoms='H:1 O:2',
        thermo=(NASA([10.00, 891.11],
                     [ 4.02887004E+00, -1.75769289E-03,  1.08726004E-05,
                      -1.13812972E-08,  3.90113097E-12,  4.95165001E+02,
                       4.69302008E+00]),
                NASA([891.11, 3000.00],
                     [ 3.06571044E+00,  4.28505005E-03, -2.19325920E-06,
                       5.58882699E-10, -5.61246669E-14,  5.98557610E+02,
                       8.84564156E+00])))

species(name='gQOOH[O]',
        atoms='C:4 H:9 O:3',
        thermo=(NASA([10.00, 535.23],
                     [ 3.83107445E+00,  1.02302002E-02,  2.29377261E-04,
                      -4.59095575E-07,  2.77765018E-10, -1.83692558E+04,
                       1.41034859E+01]),
                NASA([535.23, 3000.00],
                     [-4.19283096E-01,  7.69784620E-02, -5.57279000E-05,
                       1.81378295E-08, -2.18295635E-12, -1.84153691E+04,
                       2.72711816E+01])))

#-------------------------------------------------------------------------------
# Reaction data
#-------------------------------------------------------------------------------

# Reaction 1
chebyshev_reaction('gQOOH[O] (+ M) <=> gRO2 (+ M)',
                   Tmin=180.0, Tmax=1500.0,
                   Pmin=(0.01, 'atm'), Pmax=(98.692, 'atm'),
                   coeffs=[[ 7.96900e+00,  1.00300e+00, -1.60200e-01,  1.57600e-02,  4.69800e-03, -2.51800e-03, -3.92300e-04,  3.82000e-04],
                           [-2.26200e-01,  1.12500e+00, -1.17700e-02, -2.57000e-02,  2.26400e-03,  1.48200e-03, -7.19800e-04, -1.21600e-04],
                           [-1.05700e+00,  4.03600e-01,  7.72600e-02, -9.18800e-03, -7.23100e-03,  1.75100e-03,  8.24300e-04, -3.68800e-04],
                           [-5.38500e-01,  1.45400e-01,  1.28100e-02,  6.70600e-03, -1.73400e-03, -2.45800e-04,  5.28800e-04, -1.18300e-05],
                           [-1.87000e-01,  6.69900e-02, -2.67700e-02,  2.34200e-03,  2.62200e-03,  1.06700e-04, -7.64700e-05,  3.14300e-05],
                           [-3.98400e-02,  3.82500e-02, -2.62500e-02, -2.99900e-03,  1.91300e-03,  4.70100e-04, -7.02100e-05, -9.71200e-07],
                           [ 3.11400e-03,  2.50900e-02, -1.36200e-02, -3.41100e-03,  3.63900e-04,  1.73300e-04,  1.89600e-06,  3.03700e-05],
                           [ 5.94300e-03,  1.57600e-02, -3.37000e-03, -1.88000e-03, -2.80500e-04, -7.12100e-05, -1.99000e-05,  3.09700e-05],
                           [-4.85200e-04,  9.61100e-03,  1.31700e-03, -7.15400e-04, -3.39100e-04, -8.35300e-05, -2.49200e-05,  9.38600e-06],
                           [-4.09000e-03,  4.51100e-03,  3.01200e-03, -2.35800e-04, -3.72600e-04, -2.01400e-05,  1.40100e-05, -3.36600e-06]])

# Reaction 2
chebyshev_reaction('gQOOHa (+ M) <=> gRO2 (+ M)',
                   Tmin=180.0, Tmax=1500.0,
                   Pmin=(0.01, 'atm'), Pmax=(98.692, 'atm'),
                   coeffs=[[ 2.94400e+00,  1.89500e-01, -5.74800e-02,  6.90000e-03, -6.25100e-05, -3.71300e-05,  4.60800e-05, -6.99800e-06],
                           [ 4.83100e+00,  3.57300e-01, -1.05800e-01,  1.13700e-02,  3.27300e-04, -1.33800e-04,  8.90800e-05, -1.00400e-05],
                           [ 5.37500e-01,  2.99300e-01, -8.19100e-02,  5.42600e-03,  1.31200e-03, -2.33400e-04,  6.99700e-05,  1.20100e-06],
                           [-3.18400e-01,  2.22800e-01, -5.21900e-02, -9.90100e-04,  2.05100e-03, -2.27900e-04,  2.33200e-05,  1.58200e-05],
                           [-1.81100e-01,  1.46900e-01, -2.55700e-02, -5.20600e-03,  2.02200e-03, -6.75300e-05, -3.70200e-05,  2.56200e-05],
                           [-6.29800e-02,  8.51200e-02, -7.25400e-03, -6.29900e-03,  1.29600e-03,  1.54200e-04, -7.66600e-05,  2.34600e-05],
                           [-4.00200e-02,  4.25900e-02,  2.09600e-03, -5.02300e-03,  3.47100e-04,  2.97200e-04, -7.22500e-05,  1.02100e-05],
                           [-2.61800e-02,  1.76600e-02,  4.80600e-03, -2.82600e-03, -3.55800e-04,  2.92400e-04, -3.21000e-05, -5.32700e-06],
                           [-1.04400e-02,  5.44200e-03,  4.02400e-03, -9.04400e-04, -6.16400e-04,  1.74500e-04,  1.36400e-05, -1.37900e-05],
                           [-3.16000e-03,  7.22800e-04,  2.23800e-03,  2.07300e-04, -5.15900e-04,  3.18900e-05,  3.82300e-05, -1.21700e-05]])

# Reaction 3
chebyshev_reaction('gQOOHg (+ M) <=> gRO2 (+ M)',
                   Tmin=180.0, Tmax=1500.0,
                   Pmin=(0.01, 'atm'), Pmax=(98.692, 'atm'),
                   coeffs=[[ 9.09700e+00,  8.14700e-01, -2.96600e-01,  3.73100e-02,  1.09300e-02, -3.96900e-03, -2.04000e-04,  1.73300e-04],
                           [-9.66200e-02,  6.94200e-01, -1.27800e-01, -5.14300e-02,  2.18100e-02,  5.54200e-03, -4.24700e-03, -2.38600e-04],
                           [-2.04300e-01,  3.22600e-01, -2.53000e-02, -2.70400e-02, -2.29400e-03,  6.86300e-03, -8.75300e-05, -1.44900e-03],
                           [-1.62200e-01,  1.80200e-01, -1.01500e-02, -7.22200e-03, -6.00400e-03,  1.93300e-03,  1.75200e-03, -6.31800e-04],
                           [-1.10300e-01,  1.13500e-01, -6.26100e-03, -1.86400e-03, -3.21100e-03, -5.44100e-04,  1.19000e-03,  1.64000e-04],
                           [-7.05200e-02,  6.87100e-02, -8.01100e-04, -1.88500e-03, -1.02700e-03, -7.89600e-04,  3.28500e-04,  3.57600e-04],
                           [-4.04000e-02,  3.45000e-02,  3.56600e-03, -1.46300e-03, -5.77900e-04, -4.56800e-04,  1.28300e-05,  2.13000e-04],
                           [-2.05800e-02,  1.32300e-02,  5.01100e-03, -7.13900e-04, -5.15600e-04, -2.14500e-04, -4.86200e-05,  7.87900e-05],
                           [-9.95600e-03,  3.82500e-03,  3.95800e-03, -1.95900e-04, -2.61300e-04, -1.29300e-04, -7.85700e-05,  3.48400e-05],
                           [-3.14900e-03, -1.53200e-03,  2.69600e-03,  4.81600e-04, -3.38900e-04, -5.90400e-05, -1.56200e-05, -1.86600e-05]])

# Reaction 4
chebyshev_reaction('gQOOHb (+ M) <=> gRO2 (+ M)',
                   Tmin=180.0, Tmax=1500.0,
                   Pmin=(0.01, 'atm'), Pmax=(98.692, 'atm'),
                   coeffs=[[-2.68100e-02,  7.69500e-01, -1.25100e-01, -9.94200e-03,  2.80900e-03,  3.65200e-04, -1.90400e-04, -2.76900e-06],
                           [ 5.81300e+00,  1.18800e+00, -1.54300e-01, -1.98800e-02,  5.55300e-04,  7.70800e-04,  1.44600e-05, -1.32000e-06],
                           [ 6.57700e-01,  5.29600e-01,  4.66000e-03, -1.41200e-02, -7.15500e-03,  2.38500e-04,  5.72100e-04,  5.25000e-05],
                           [-4.39200e-01,  1.47300e-01,  5.58700e-02, -2.37400e-03, -6.95700e-03, -9.88100e-04,  4.11600e-04,  1.37300e-04],
                           [-2.94200e-01,  8.49200e-02,  1.80000e-02,  4.64000e-03, -9.07200e-04, -1.48100e-03, -2.24600e-04,  1.17700e-04],
                           [-9.81300e-02,  7.80800e-02, -1.09200e-02,  4.43800e-03,  2.53100e-03, -7.61700e-04, -4.93100e-04, -1.14800e-05],
                           [-2.87300e-02,  2.74300e-02, -8.10800e-03,  2.39400e-03,  1.90300e-03,  7.38300e-05, -2.86700e-04, -9.64900e-05],
                           [-6.80700e-03, -9.66200e-03, -3.37900e-04,  4.64500e-04,  8.31500e-04,  3.82800e-04, -6.85100e-05, -8.35100e-05],
                           [ 6.71700e-04, -8.55600e-03,  8.51000e-04, -1.31900e-03,  5.07200e-04,  4.05100e-04,  1.06800e-05, -4.78500e-05],
                           [-1.38600e-03,  3.28400e-03, -1.95600e-05, -1.80400e-03,  8.92000e-05,  3.18800e-04,  7.24300e-05, -2.46200e-05]])

# Reaction 5
chebyshev_reaction('O2 + gR (+ M) <=> gRO2 (+ M)',
                   Tmin=180.0, Tmax=1500.0,
                   Pmin=(0.01, 'atm'), Pmax=(98.692, 'atm'),
                   coeffs=[[ 1.26400e+01,  2.51500e-01, -6.28700e-02,  3.57000e-03, -3.62700e-05,  3.32800e-04, -2.15000e-05, -3.60600e-07],
                           [-9.45200e-01,  4.42600e-01, -9.98100e-02, -2.83500e-04,  1.76100e-03,  1.82300e-04,  6.66700e-05, -1.62500e-05],
                           [-4.43300e-01,  3.18600e-01, -5.44500e-02, -8.67900e-03,  2.40300e-03,  1.94300e-04,  2.93700e-05,  1.86500e-06],
                           [-2.36100e-01,  1.93400e-01, -1.78300e-02, -1.05900e-02,  1.00500e-03,  4.98300e-04, -1.91400e-06,  8.23800e-07],
                           [-1.24600e-01,  9.80700e-02,  2.33500e-03, -7.78700e-03, -5.77900e-04,  4.99700e-04,  6.39200e-05, -1.25900e-05],
                           [-5.94000e-02,  3.79300e-02,  9.70600e-03, -4.08100e-03, -1.20100e-03,  2.09800e-04,  1.22600e-04, -5.17400e-06],
                           [-2.40500e-02,  7.45900e-03,  9.47900e-03, -1.28400e-03, -1.03700e-03, -6.54000e-05,  1.01900e-04,  1.61600e-05],
                           [-8.01600e-03, -2.84300e-03,  5.89800e-03,  2.96800e-04, -5.87200e-04, -1.82900e-04,  3.73300e-05,  2.66000e-05],
                           [-2.62800e-03, -3.04400e-03,  2.12000e-03,  8.56400e-04, -1.78300e-04, -1.68900e-04, -1.67000e-05,  2.02300e-05],
                           [-1.34000e-03, -9.28600e-04, -5.16000e-05,  7.17700e-04,  6.84200e-05, -9.57200e-05, -3.90600e-05,  6.79600e-06]])
#  gRO2(+M) <=> gQOOH[O](+M)                           1.000e+00 0.000     0.000
#      TCHEB/ 180.000   1500.000 /
#      PCHEB/ 0.010     98.692   /
#      CHEB/ 10 8/
#      CHEB/ -7.569e+00   1.003e+00    -1.602e-01   1.576e-02    4.698e-03   /
#      CHEB/ -2.518e-03   -3.923e-04   3.820e-04    1.134e+01    1.125e+00   /
#      CHEB/ -1.177e-02   -2.570e-02   2.264e-03    1.482e-03    -7.198e-04  /
#      CHEB/ -1.216e-04   -8.838e-01   4.036e-01    7.726e-02    -9.188e-03  /
#      CHEB/ -7.231e-03   1.751e-03    8.243e-04    -3.688e-04   -4.137e-01  /
#      CHEB/ 1.454e-01    1.281e-02    6.706e-03    -1.734e-03   -2.458e-04  /
#      CHEB/ 5.288e-04    -1.183e-05   -1.333e-01   6.699e-02    -2.677e-02  /
#      CHEB/ 2.342e-03    2.622e-03    1.067e-04    -7.647e-05   3.143e-05   /
#      CHEB/ -2.079e-02   3.825e-02    -2.625e-02   -2.999e-03   1.913e-03   /
#      CHEB/ 4.701e-04    -7.021e-05   -9.712e-07   9.329e-03    2.509e-02   /
#      CHEB/ -1.362e-02   -3.411e-03   3.639e-04    1.733e-04    1.896e-06   /
#      CHEB/ 3.037e-05    7.862e-03    1.576e-02    -3.370e-03   -1.880e-03  /
#      CHEB/ -2.805e-04   -7.121e-05   -1.990e-05   3.097e-05    -2.350e-05  /
#      CHEB/ 9.611e-03    1.317e-03    -7.154e-04   -3.391e-04   -8.353e-05  /
#      CHEB/ -2.492e-05   9.386e-06    -4.119e-03   4.511e-03    3.012e-03   /
#      CHEB/ -2.358e-04   -3.726e-04   -2.014e-05   1.401e-05    -3.366e-06  /

# Reaction 6
chebyshev_reaction('gQOOHa (+ M) <=> gQOOH[O] (+ M)',
                   Tmin=180.0, Tmax=1500.0,
                   Pmin=(0.01, 'atm'), Pmax=(98.692, 'atm'),
                   coeffs=[[-8.17800e+00, -6.06300e-01, -2.29200e-01,  1.93900e-02,  5.80000e-03, -2.86800e-03, -4.57700e-04,  4.61500e-04],
                           [ 1.00400e+01,  1.48200e+00, -4.58600e-02, -2.42400e-02, -1.66800e-03,  2.60500e-03, -2.07800e-04, -3.81000e-04],
                           [-4.54800e-01,  5.67400e-01,  2.33400e-03,  4.87600e-03, -4.69500e-03,  2.61300e-04,  9.58800e-04, -2.44800e-04],
                           [-1.52100e-01,  2.44800e-01, -6.22300e-02,  7.44400e-03,  5.33600e-03, -9.21700e-04, -8.11300e-05,  1.22300e-04],
                           [-2.05300e-02,  1.33400e-01, -5.36400e-02, -7.89200e-03,  5.54100e-03,  4.95700e-04, -3.73000e-04,  6.84900e-05],
                           [-3.65100e-02,  8.03100e-02, -1.43900e-02, -1.18000e-02,  7.23500e-04,  7.15100e-04, -9.31600e-05,  4.01700e-05],
                           [-5.51000e-02,  4.57800e-02,  8.93400e-03, -7.01800e-03, -1.53900e-03,  2.90200e-04, -2.75600e-05,  1.59200e-05],
                           [-4.01000e-02,  1.94400e-02,  1.31700e-02, -2.07700e-03, -1.52300e-03,  1.15800e-04, -1.35500e-06, -3.56600e-05],
                           [-9.60700e-03,  4.70600e-03,  8.20100e-03,  4.53000e-04, -8.48400e-04,  3.08300e-05,  3.89100e-05, -3.83300e-05],
                           [ 8.25500e-03, -2.33000e-03,  2.88300e-03,  1.29700e-03, -2.96700e-04, -7.35300e-05,  4.47200e-05, -1.62300e-05]])

# Reaction 7
chebyshev_reaction('gQOOHg (+ M) <=> gQOOH[O] (+ M)',
                   Tmin=180.0, Tmax=1500.0,
                   Pmin=(0.01, 'atm'), Pmax=(98.692, 'atm'),
                   coeffs=[[-5.04800e-01,  1.58200e-01, -4.96700e-01,  4.10700e-02,  2.58000e-02, -8.62000e-03, -2.08400e-03,  1.53500e-03],
                           [ 2.96600e+00,  1.63800e+00,  1.42300e-02, -8.43800e-02,  3.86200e-03,  1.22000e-02, -2.61300e-03, -1.92400e-03],
                           [-3.60200e-01,  5.28400e-01,  6.28200e-02, -1.68600e-02, -1.07900e-02,  5.09100e-03,  1.86700e-03, -1.34600e-03],
                           [-8.32900e-02,  1.84300e-01, -2.38400e-02,  2.22600e-03, -1.32800e-03,  4.91800e-04,  1.21100e-03, -1.29900e-04],
                           [ 1.42800e-02,  9.02400e-02, -2.90100e-02, -5.13000e-03, -2.56500e-04, -5.73400e-05,  7.29800e-04,  2.67400e-04],
                           [-2.06900e-02,  5.97000e-02, -1.52300e-03, -6.42300e-03, -2.41800e-03, -6.34200e-04,  4.20600e-04,  3.77100e-04],
                           [-5.52200e-02,  3.20800e-02,  1.45200e-02, -1.96100e-03, -2.64900e-03, -9.07500e-04,  1.30900e-04,  2.45200e-04],
                           [-4.28700e-02,  1.01900e-02,  1.45400e-02,  7.91600e-04, -1.38000e-03, -5.62600e-04, -5.59200e-05,  6.93000e-05],
                           [-4.96000e-03,  2.87900e-03,  7.14300e-03,  9.46500e-04,  2.83900e-05, -1.90100e-04, -1.86900e-04,  5.06200e-06],
                           [ 7.59900e-03, -6.99600e-03,  3.20300e-03,  1.35900e-03, -9.36700e-06, -3.61800e-05, -4.79800e-05, -4.87200e-05]])

# Reaction 8
chebyshev_reaction('gQOOHb (+ M) <=> gQOOH[O] (+ M)',
                   Tmin=180.0, Tmax=1500.0,
                   Pmin=(0.01, 'atm'), Pmax=(98.692, 'atm'),
                   coeffs=[[-1.00400e+01,  4.70800e-01, -4.01700e-01,  5.53900e-03,  1.40500e-02, -3.28800e-03, -1.29800e-03,  6.01300e-04],
                           [ 9.83900e+00,  1.90200e+00,  1.04200e-01, -6.22700e-02, -1.61100e-02,  4.29500e-03,  1.35800e-03, -5.01400e-04],
                           [-2.55400e-01,  5.24000e-01,  1.06000e-01,  2.89200e-03, -1.09600e-02, -6.61800e-04,  8.14900e-04, -1.20600e-04],
                           [-2.09700e-01,  2.10900e-01, -1.59900e-02,  7.83100e-03,  2.88700e-03, -7.27300e-04, -6.06300e-04,  9.45600e-06],
                           [-7.67300e-02,  1.10200e-01, -2.31800e-02,  9.06100e-04,  2.16700e-03, -7.84000e-04, -3.37900e-04,  1.73200e-04],
                           [-6.20800e-02,  4.33100e-02,  1.36300e-04,  7.21600e-04,  8.79600e-05, -7.61600e-04, -1.39000e-04,  7.19200e-05],
                           [-5.17300e-02,  1.01200e-02,  6.45900e-03,  3.86500e-04,  4.18000e-04,  1.14500e-04, -1.17200e-04, -1.26800e-04],
                           [-2.44100e-02, -5.31900e-03,  3.71700e-03, -5.65700e-04,  5.54800e-04,  6.35900e-04,  2.06200e-05, -1.42900e-04],
                           [ 9.77700e-03, -5.06100e-03,  3.87600e-04, -1.25200e-03,  2.96600e-04,  5.39400e-04,  8.11000e-05, -5.33600e-05],
                           [ 1.40700e-02, -4.08500e-03,  6.11700e-04, -7.33100e-04, -2.98000e-04,  1.48500e-04,  1.13500e-04,  3.03200e-05]])

# Reaction 9
chebyshev_reaction('O2 + gR (+ M) <=> gQOOH[O] (+ M)',
                   Tmin=180.0, Tmax=1500.0,
                   Pmin=(0.01, 'atm'), Pmax=(98.692, 'atm'),
                   coeffs=[[ 5.40700e+00,  9.95800e-02, -1.90600e-01, -3.82500e-02, -3.55900e-03,  3.28100e-03,  1.08800e-03, -1.39000e-04],
                           [-4.81900e-01,  8.48000e-01,  3.70500e-02,  3.21000e-02, -3.92600e-04, -5.29100e-03, -1.34100e-03,  3.85900e-04],
                           [-1.81400e-01,  3.63000e-01, -5.24300e-02, -6.55300e-03,  8.73500e-03,  2.76200e-03, -1.12100e-04, -4.72600e-04],
                           [ 6.59700e-03,  1.91800e-01, -1.91400e-02, -1.96700e-02, -8.07700e-04,  1.55000e-03,  7.13800e-04,  1.60900e-04],
                           [ 2.33200e-03,  9.08800e-02,  1.30100e-02, -1.05500e-02, -3.49000e-03, -1.42800e-04,  1.53400e-04,  1.27500e-04],
                           [-3.67200e-02,  2.34200e-02,  1.92100e-02, -1.97800e-03, -2.15300e-03, -3.53200e-04, -3.58700e-05, -2.64000e-05],
                           [-4.03600e-02, -6.43700e-03,  1.39400e-02,  1.26800e-03, -9.86700e-04, -2.77400e-04,  2.54800e-05, -4.65400e-06],
                           [-1.58800e-02, -1.36200e-02,  6.10600e-03,  1.83800e-03, -1.86200e-04, -1.93300e-04, -1.03800e-05,  1.86500e-05],
                           [ 7.49300e-03, -7.41000e-03,  1.24100e-03,  1.32700e-03,  5.13700e-05, -1.23000e-04, -3.47200e-05,  1.83900e-05],
                           [ 1.60800e-02, -2.80100e-03, -1.29200e-03,  7.28300e-04,  2.51800e-04, -1.05400e-05, -5.46100e-05, -1.04500e-05]])
#  gRO2(+M) <=> gQOOHa(+M)                             1.000e+00 0.000     0.000
#      TCHEB/ 180.000   1500.000 /
#      PCHEB/ 0.010     98.692   /
#      CHEB/ 10 8/
#      CHEB/ -9.500e-01   1.895e-01    -5.748e-02   6.900e-03    -6.251e-05  /
#      CHEB/ -3.713e-05   4.608e-05    -6.998e-06   7.868e+00    3.573e-01   /
#      CHEB/ -1.058e-01   1.137e-02    3.273e-04    -1.338e-04   8.908e-05   /
#      CHEB/ -1.004e-05   6.992e-01    2.993e-01    -8.191e-02   5.426e-03   /
#      CHEB/ 1.312e-03    -2.334e-04   6.997e-05    1.201e-06    -2.442e-01  /
#      CHEB/ 2.228e-01    -5.219e-02   -9.901e-04   2.051e-03    -2.279e-04  /
#      CHEB/ 2.332e-05    1.582e-05    -1.526e-01   1.469e-01    -2.557e-02  /
#      CHEB/ -5.206e-03   2.022e-03    -6.753e-05   -3.702e-05   2.562e-05   /
#      CHEB/ -5.319e-02   8.512e-02    -7.254e-03   -6.299e-03   1.296e-03   /
#      CHEB/ 1.542e-04    -7.666e-05   2.346e-05    -3.712e-02   4.259e-02   /
#      CHEB/ 2.096e-03    -5.023e-03   3.471e-04    2.972e-04    -7.225e-05  /
#      CHEB/ 1.021e-05    -2.555e-02   1.766e-02    4.806e-03    -2.826e-03  /
#      CHEB/ -3.558e-04   2.924e-04    -3.210e-05   -5.327e-06   -1.044e-02  /
#      CHEB/ 5.442e-03    4.024e-03    -9.044e-04   -6.164e-04   1.745e-04   /
#      CHEB/ 1.364e-05    -1.379e-05   -3.277e-03   7.228e-04    2.238e-03   /
#      CHEB/ 2.073e-04    -5.159e-04   3.189e-05    3.823e-05    -1.217e-05  /
#  gQOOH[O](+M) <=> gQOOHa(+M)                         1.000e+00 0.000     0.000
#      TCHEB/ 180.000   1500.000 /
#      PCHEB/ 0.010     98.692   /
#      CHEB/ 10 8/
#      CHEB/ 3.465e+00    -6.063e-01   -2.292e-01   1.939e-02    5.800e-03   /
#      CHEB/ -2.868e-03   -4.577e-04   4.615e-04    1.512e+00    1.482e+00   /
#      CHEB/ -4.586e-02   -2.424e-02   -1.668e-03   2.605e-03    -2.078e-04  /
#      CHEB/ -3.810e-04   -4.661e-01   5.674e-01    2.334e-03    4.876e-03   /
#      CHEB/ -4.695e-03   2.613e-04    9.588e-04    -2.448e-04   -2.027e-01  /
#      CHEB/ 2.448e-01    -6.223e-02   7.444e-03    5.336e-03    -9.217e-04  /
#      CHEB/ -8.113e-05   1.223e-04    -4.566e-02   1.334e-01    -5.364e-02  /
#      CHEB/ -7.892e-03   5.541e-03    4.957e-04    -3.730e-04   6.849e-05   /
#      CHEB/ -4.577e-02   8.031e-02    -1.439e-02   -1.180e-02   7.235e-04   /
#      CHEB/ 7.151e-04    -9.316e-05   4.017e-05    -5.841e-02   4.578e-02   /
#      CHEB/ 8.934e-03    -7.018e-03   -1.539e-03   2.902e-04    -2.756e-05  /
#      CHEB/ 1.592e-05    -4.139e-02   1.944e-02    1.317e-02    -2.077e-03  /
#      CHEB/ -1.523e-03   1.158e-04    -1.355e-06   -3.566e-05   -1.007e-02  /
#      CHEB/ 4.706e-03    8.201e-03    4.530e-04    -8.484e-04   3.083e-05   /