units(length='cm', time='s', quantity='mol', act_energy='kcal/mol')

ideal_gas(name='gas',
          elements="H D T C Ci O Oi N Ne Ar He Si S F Cl Br I X",
          species="""propene3ol       OH               disub_c4ether
                     H2O              disub_epoxy      gQOOHa
                     propene1ol       gQOOHb           ipropylOOH
                     galdoxy          galkene          CH2O
                     O2               gRO2             gQOOHg
                     gR               galdol           monosub_c4ether
                     HO2              gQOOH[O]""",
          reactions='all',
          initial_state=state(temperature=300.0, pressure=OneAtm))

#-------------------------------------------------------------------------------
# Element data
#-------------------------------------------------------------------------------

element(symbol='Ci', atomic_mass=13.003)
element(symbol='D', atomic_mass=2.014)
element(symbol='Oi', atomic_mass=18.0)
element(symbol='T', atomic_mass=3.016)
element(symbol='X', atomic_mass=195.083)
#-------------------------------------------------------------------------------
# Species data
#-------------------------------------------------------------------------------

species(name='propene3ol',
        atoms='C:3 H:6 O:1',
        thermo=(NASA([10.00, 444.81],
                     [ 3.92769709E+00,  4.89977303E-03,  1.13094874E-04,
                      -2.59008187E-07,  1.86205760E-10, -1.40119846E+04,
                       9.90805416E+00]),
                NASA([444.81, 3000.00],
                     [ 2.61720343E+00,  3.01777872E-02, -1.76511625E-05,
                       5.14864061E-09, -5.91153761E-13, -1.40288851E+04,
                       1.36683107E+01])))

species(name='OH',
        atoms='H:1 O:1',
        thermo=(NASA([10.00, 984.14],
                     [ 3.49686242E+00,  1.83973160E-04, -9.97634499E-07,
                       1.56942783E-09, -6.10128175E-13,  3.41673934E+03,
                       1.48093120E+00]),
                NASA([984.14, 3000.00],
                     [ 3.45221464E+00, -2.95124034E-04,  7.39418622E-07,
                      -2.89309866E-10,  3.53041498E-14,  3.45751599E+03,
                       1.85813897E+00])))

species(name='disub_c4ether',
        atoms='C:4 H:8 O:2',
        thermo=(NASA([10.00, 413.50],
                     [ 3.78241323E+00,  1.89501763E-02,  8.65302396E-05,
                      -1.80580575E-07,  1.13656264E-10, -3.84004709E+04,
                       1.09982450E+01]),
                NASA([413.50, 3000.00],
                     [ 4.29420885E-01,  5.13851903E-02, -3.11292293E-05,
                       9.11498284E-09, -1.03192718E-12, -3.81231766E+04,
                       2.42134976E+01])))

species(name='H2O',
        atoms='H:2 O:1',
        thermo=(NASA([10.00, 773.84],
                     [ 4.00473541E+00, -2.39729134E-04,  8.11862955E-07,
                       1.47891862E-09, -1.19783539E-12, -3.03533807E+04,
                      -9.96254147E-02]),
                NASA([773.84, 3000.00],
                     [ 3.52133374E+00,  1.05377009E-03,  6.40722099E-07,
                      -3.86240235E-10,  5.49243294E-14, -3.02424794E+04,
                       2.34173094E+00])))

species(name='disub_epoxy',
        atoms='C:4 H:8 O:2',
        thermo=(NASA([10.00, 549.41],
                     [ 3.89863211E+00,  5.97532637E-03,  1.66685676E-04,
                      -3.10743768E-07,  1.78330192E-10, -3.49608741E+04,
                       1.13847308E+01]),
                NASA([549.41, 3000.00],
                     [-6.40277648E-01,  6.05960003E-02, -4.13427220E-05,
                       1.31555461E-08, -1.57685017E-12, -3.47877572E+04,
                       2.76005436E+01])))

species(name='gQOOHa',
        atoms='C:4 H:9 O:3',
        thermo=(NASA([10.00, 160.74],
                     [ 3.80808147E+00,  2.31043884E-02,  5.26945984E-04,
                      -3.11500696E-06,  6.03881958E-09, -2.71847286E+04,
                       1.17645316E+01]),
                NASA([160.74, 3000.00],
                     [ 2.90630300E+00,  6.50241173E-02, -4.60073244E-05,
                       1.51330930E-08, -1.87074267E-12, -2.71809040E+04,
                       1.36838819E+01])))

species(name='propene1ol',
        atoms='C:3 H:6 O:1',
        thermo=(NASA([10.00, 459.42],
                     [ 3.91245344E+00,  5.85800161E-03,  1.15412006E-04,
                      -2.68014417E-07,  1.91800131E-10, -1.66463979E+04,
                       8.14807684E+00]),
                NASA([459.42, 3000.00],
                     [ 3.14049093E+00,  2.95550898E-02, -1.73843684E-05,
                       5.11506211E-09, -5.92966137E-13, -1.67546205E+04,
                       9.32215170E+00])))

species(name='gQOOHb',
        atoms='C:4 H:9 O:3',
        thermo=(NASA([10.00, 1018.67],
                     [ 3.99028351E+00,  4.29665712E-02,  2.28338778E-05,
                      -5.67914439E-08,  2.29383258E-11, -2.31072563E+04,
                       1.20326731E+01]),
                NASA([1018.67, 3000.00],
                     [ 1.38304153E+01,  3.88527019E-02, -2.19473905E-05,
                       5.78719895E-09, -5.85097740E-13, -2.69033410E+04,
                      -4.44147388E+01])))

species(name='ipropylOOH',
        atoms='C:3 H:7 O:2',
        thermo=(NASA([10.00, 405.01],
                     [ 3.30075623E+00,  7.58672756E-02, -3.35754269E-04,
                       8.05972164E-07, -6.68864582E-10, -2.44565054E+02,
                       1.43372849E+01]),
                NASA([405.01, 3000.00],
                     [ 2.51742509E+00,  3.72760950E-02, -2.12450220E-05,
                       5.83593926E-09, -6.22110649E-13,  1.98842553E+02,
                       2.20991392E+01])))

species(name='galdoxy',
        atoms='C:4 H:7 O:2',
        thermo=(NASA([10.00, 209.62],
                     [ 3.82641108E+00,  1.84758886E-02,  3.43073800E-04,
                      -1.82817005E-06,  2.98516720E-09, -1.89774445E+04,
                       1.17972706E+01]),
                NASA([209.62, 3000.00],
                     [ 4.22049016E+00,  4.03370149E-02, -2.36129482E-05,
                       6.72979114E-09, -7.47862493E-13, -1.90585143E+04,
                       8.97211724E+00])))

species(name='galkene',
        atoms='C:4 H:8 O:1',
        thermo=(NASA([10.00, 383.47],
                     [ 3.84035604E+00,  1.20378740E-02,  1.87486319E-04,
                      -5.44759148E-07,  4.80711015E-10, -2.03566752E+04,
                       1.02570291E+01]),
                NASA([383.47, 3000.00],
                     [ 4.00413385E+00,  3.79025144E-02, -2.15435710E-05,
                       6.15213311E-09, -6.97446345E-13, -2.05719645E+04,
                       6.98052628E+00])))

species(name='CH2O',
        atoms='C:1 H:2 O:1',
        thermo=(NASA([10.00, 601.31],
                     [ 4.03190845E+00, -1.93233367E-03,  8.89743345E-06,
                       2.98105926E-09, -7.90813886E-12, -1.42276270E+04,
                       3.47574660E+00]),
                NASA([601.31, 3000.00],
                     [ 1.40134195E+00,  9.48858016E-03, -4.43088317E-06,
                       9.48452194E-10, -7.43790219E-14, -1.38013869E+04,
                       1.57423780E+01])))

species(name='O2',
        atoms='O:2',
        thermo=(NASA([10.00, 605.96],
                     [ 3.50743498E+00, -4.43860349E-04,  1.45938058E-06,
                       1.61509333E-09, -2.32050052E-12, -9.24756224E+02,
                       4.72183634E+00]),
                NASA([605.96, 3000.00],
                     [ 2.87462882E+00,  2.17840991E-03, -1.18262921E-06,
                       2.86910493E-10, -2.53297146E-14, -8.19517838E+02,
                       7.69331810E+00])))

species(name='gRO2',
        atoms='C:4 H:9 O:3',
        thermo=(NASA([10.00, 177.33],
                     [ 3.70632176E+00,  3.49733664E-02,  4.64036392E-04,
                      -3.18637835E-06,  6.38178607E-09, -2.75828748E+04,
                       1.24459269E+01]),
                NASA([177.33, 3000.00],
                     [ 4.82062697E+00,  5.17179689E-02, -3.18386818E-05,
                       9.52247045E-09, -1.10180288E-12, -2.76882454E+04,
                       7.14082953E+00])))

species(name='gQOOHg',
        atoms='C:4 H:9 O:3',
        thermo=(NASA([10.00, 475.03],
                     [ 3.42273720E+00,  4.98344215E-02,  6.47820920E-05,
                      -2.49842966E-07,  1.98636537E-10, -2.06433962E+04,
                       1.41578583E+01]),
                NASA([475.03, 3000.00],
                     [ 5.94049074E+00,  5.53778585E-02, -3.71708255E-05,
                       1.17540477E-08, -1.40812095E-12, -2.11843505E+04,
                       7.09201218E-01])))

species(name='gR',
        atoms='C:4 H:9 O:1',
        thermo=(NASA([10.00, 638.24],
                     [ 3.37074633E+00,  5.17529751E-02, -6.54872940E-05,
                       6.88084237E-08, -3.21569794E-11, -1.24880764E+04,
                       1.14339669E+01]),
                NASA([638.24, 3000.00],
                     [ 3.99410860E+00,  4.06314915E-02, -2.23932510E-05,
                       6.08356263E-09, -6.49884708E-13, -1.24207017E+04,
                       9.85769960E+00])))

species(name='galdol',
        atoms='C:4 H:8 O:2',
        thermo=(NASA([10.00, 506.68],
                     [ 3.85380874E+00,  9.21272695E-03,  1.86712348E-04,
                      -3.96417049E-07,  2.55528268E-10, -4.60687111E+04,
                       1.24312743E+01]),
                NASA([506.68, 3000.00],
                     [ 1.49710213E+00,  5.65979142E-02, -3.87709084E-05,
                       1.23682052E-08, -1.48287964E-12, -4.61993205E+04,
                       1.85531759E+01])))

species(name='monosub_c4ether',
        atoms='C:4 H:8 O:2',
        thermo=(NASA([10.00, 380.36],
                     [ 3.47743996E+00,  6.08051311E-02, -2.78518945E-04,
                       8.23182713E-07, -7.87158031E-10, -3.38183595E+04,
                       1.06415154E+01]),
                NASA([380.36, 3000.00],
                     [-1.09346901E+00,  5.35985968E-02, -3.21081420E-05,
                       9.20818293E-09, -1.01830294E-12, -3.30707994E+04,
                       3.35312368E+01])))

species(name='HO2',
        atoms='H:1 O:2',
        thermo=(NASA([10.00, 891.11],
                     [ 4.02887004E+00, -1.75769289E-03,  1.08726004E-05,
                      -1.13812972E-08,  3.90113097E-12,  4.95165001E+02,
                       4.69302008E+00]),
                NASA([891.11, 3000.00],
                     [ 3.06571044E+00,  4.28505005E-03, -2.19325920E-06,
                       5.58882699E-10, -5.61246669E-14,  5.98557610E+02,
                       8.84564156E+00])))

species(name='gQOOH[O]',
        atoms='C:4 H:9 O:3',
        thermo=(NASA([10.00, 535.23],
                     [ 3.83107445E+00,  1.02302002E-02,  2.29377261E-04,
                      -4.59095575E-07,  2.77765018E-10, -1.87589806E+04,
                       1.41034859E+01]),
                NASA([535.23, 3000.00],
                     [-4.19283096E-01,  7.69784620E-02, -5.57279000E-05,
                       1.81378295E-08, -2.18295635E-12, -1.88050940E+04,
                       2.72711816E+01])))

#-------------------------------------------------------------------------------
# Reaction data
#-------------------------------------------------------------------------------

# Reaction 1
chebyshev_reaction('gQOOH[O] (+ M) <=> gRO2 (+ M)',
                   Tmin=180.0, Tmax=1500.0,
                   Pmin=(0.01, 'atm'), Pmax=(98.692, 'atm'),
                   coeffs=[[ 4.84600e+00,  1.10900e+00, -1.68400e-01,  1.88300e-02,  5.14700e-03, -5.72900e-04, -5.41600e-04,  5.35700e-05],
                           [-5.11900e+00,  9.82300e-01,  8.60500e-03, -1.35700e-02,  5.18800e-03,  1.72000e-03, -1.15300e-03, -1.76600e-06],
                           [-3.91400e+00, -5.98300e-02,  5.50800e-02,  2.89900e-02, -5.01400e-03, -2.13000e-03,  3.50900e-04,  2.92200e-04],
                           [-2.11200e+00, -1.76800e-01, -3.35500e-02,  1.78600e-02,  4.52700e-03, -2.47800e-03, -5.59500e-04,  3.88600e-04],
                           [-9.72000e-01,  1.83100e-02, -2.07400e-02, -1.61800e-02,  1.52200e-03,  1.68000e-03, -1.21000e-04, -1.97200e-04],
                           [-4.53000e-01,  6.61200e-02,  2.95900e-02, -1.28700e-02, -5.63100e-03,  8.86600e-04,  9.32900e-04, -6.81500e-05],
                           [-2.23600e-01, -1.62000e-02,  2.42300e-02,  5.02400e-03, -1.75100e-03, -1.18400e-03,  8.29600e-05,  2.13600e-04],
                           [-9.80900e-02, -6.72900e-02, -1.35800e-02,  4.30300e-03,  4.09100e-03,  2.52700e-04, -7.74700e-04, -1.16600e-04],
                           [-1.70900e-02, -3.67400e-02, -2.89300e-02, -5.49300e-03,  1.72700e-03,  1.62900e-03,  3.46600e-07, -3.06700e-04],
                           [ 2.29900e-02,  8.92700e-03, -9.52000e-03, -7.14500e-03, -2.94100e-03,  2.55200e-04,  6.03400e-04,  7.84500e-05]])

# Reaction 2
chebyshev_reaction('gQOOHa (+ M) <=> gRO2 (+ M)',
                   Tmin=180.0, Tmax=1500.0,
                   Pmin=(0.01, 'atm'), Pmax=(98.692, 'atm'),
                   coeffs=[[ 5.86100e-01,  5.02700e-01, -7.53100e-03,  1.15500e-02,  8.18200e-05, -3.45800e-04,  1.09500e-04, -4.06300e-05],
                           [ 2.63500e+00,  8.63800e-01,  6.96200e-03,  1.90400e-02,  6.88500e-04, -6.01700e-04,  1.24300e-04, -7.75000e-05],
                           [-2.33800e+00,  5.12200e-01,  5.21400e-02,  1.14400e-02,  1.53600e-03, -3.42400e-04, -9.49000e-05, -6.96200e-05],
                           [-1.87100e+00,  1.18700e-01,  7.84600e-02,  8.17000e-03,  1.71100e-03, -3.68400e-05, -2.85500e-04, -6.15200e-05],
                           [-1.28100e+00, -1.63200e-01,  6.17000e-02,  1.07600e-02,  1.48400e-03,  1.04300e-04, -3.24400e-04, -4.59800e-05],
                           [-6.77900e-01, -2.70900e-01,  1.31600e-02,  1.32100e-02,  1.84600e-03,  7.03400e-05, -2.14700e-04, -1.24100e-05],
                           [-2.70600e-01, -2.34500e-01, -3.54800e-02,  9.37100e-03,  2.82500e-03,  1.56600e-04, -4.58500e-05,  2.80400e-05],
                           [-3.26600e-02, -1.28500e-01, -5.87000e-02, -4.98700e-04,  3.19400e-03,  6.07400e-04,  1.24100e-04,  4.01700e-05],
                           [ 4.61600e-02, -2.17200e-02, -5.14400e-02, -1.05100e-02,  1.90900e-03,  1.22400e-03,  2.97200e-04,  2.93900e-06],
                           [ 6.92200e-02,  4.71200e-02, -2.53800e-02, -1.47000e-02, -6.28600e-04,  1.47100e-03,  4.49500e-04, -5.57600e-05]])

# Reaction 3
chebyshev_reaction('gQOOHg (+ M) <=> gRO2 (+ M)',
                   Tmin=180.0, Tmax=1500.0,
                   Pmin=(0.01, 'atm'), Pmax=(98.692, 'atm'),
                   coeffs=[[ 4.13300e+00,  7.65600e-01, -5.69400e-02,  1.89300e-02,  8.33200e-04, -4.58600e-04, -1.14300e-04,  2.10700e-05],
                           [-2.51300e+00,  1.07100e+00, -1.18900e-02,  1.72300e-02,  3.88000e-03, -8.06100e-04, -1.84300e-04, -6.43000e-06],
                           [-3.22600e+00,  2.34100e-01,  9.61800e-02,  8.95600e-03,  4.75300e-04,  6.09100e-04, -1.54600e-04, -1.00700e-04],
                           [-2.12300e+00, -2.73300e-01,  5.70400e-02,  2.20100e-02, -9.18000e-04,  1.99900e-04,  2.00800e-04, -1.13500e-04],
                           [-1.05800e+00, -3.25200e-01, -3.82600e-02,  1.74800e-02,  4.25100e-03, -4.33900e-04,  8.39100e-05,  4.15900e-05],
                           [-4.15000e-01, -1.72800e-01, -7.09100e-02, -6.32500e-03,  5.82900e-03,  1.11800e-03, -1.75700e-04,  5.36000e-05],
                           [-1.26500e-01, -3.73200e-02, -3.86200e-02, -1.97100e-02, -3.67300e-04,  2.33100e-03,  3.16500e-04, -5.80100e-05],
                           [-1.73300e-02,  1.54200e-02,  3.49900e-04, -1.15700e-02, -6.06700e-03,  7.50500e-04,  9.09700e-04,  4.48300e-05],
                           [ 6.66500e-03,  1.42500e-02,  1.12900e-02,  3.14800e-03, -4.68700e-03, -1.69100e-03,  5.01800e-04,  2.61800e-04],
                           [ 1.21900e-02,  3.28400e-03,  8.89800e-04,  8.24200e-03,  7.29700e-04, -2.01600e-03, -5.26500e-04,  1.98100e-04]])

# Reaction 4
chebyshev_reaction('gQOOHb (+ M) <=> gRO2 (+ M)',
                   Tmin=180.0, Tmax=1500.0,
                   Pmin=(0.01, 'atm'), Pmax=(98.692, 'atm'),
                   coeffs=[[-1.33100e+00,  1.24400e+00,  5.27400e-02,  1.64300e-02, -1.35000e-03, -5.82100e-04, -4.21000e-04, -8.05500e-05],
                           [-2.53900e+00,  1.30000e+00,  1.58800e-01,  1.92700e-02,  1.94000e-03, -1.48900e-03, -4.85700e-04, -1.16500e-04],
                           [-2.76800e+00,  1.99500e-01, -2.71100e-02,  1.39200e-02,  5.63100e-03,  4.14400e-04, -1.13000e-04, -6.48300e-05],
                           [-1.46200e+00, -1.41500e-01, -9.85500e-02, -8.61000e-03,  2.04300e-03,  1.17100e-03,  4.34000e-04,  4.07200e-05],
                           [-7.11500e-01, -1.17500e-01, -5.55800e-02, -6.81100e-03, -1.62900e-03,  2.19600e-04,  3.06700e-04,  5.64800e-05],
                           [-3.36100e-01, -7.00100e-02, -1.58800e-02,  2.81700e-03, -6.40900e-04,  2.12600e-04,  3.45600e-05, -4.59900e-05],
                           [-1.46800e-01, -5.82400e-02, -4.55800e-03,  2.40200e-03,  1.84900e-04,  6.08900e-04,  6.85000e-05, -5.43400e-05],
                           [-5.34700e-02, -3.57300e-02, -5.35800e-03, -2.18400e-03, -6.44800e-04,  4.28100e-04,  8.58100e-05,  4.32700e-06],
                           [-1.83200e-02, -6.48300e-04, -6.41200e-03, -3.89400e-03, -1.23200e-03,  4.25600e-05, -8.42600e-06,  2.81200e-05],
                           [ 1.91400e-02,  1.24800e-02, -6.22600e-05, -3.77900e-03, -7.37600e-04, -1.91400e-04, -5.68200e-05,  2.26300e-05]])

# Reaction 5
chebyshev_reaction('O2 + gR (+ M) <=> gRO2 (+ M)',
                   Tmin=180.0, Tmax=1500.0,
                   Pmin=(0.01, 'atm'), Pmax=(98.692, 'atm'),
                   coeffs=[[ 1.15000e+01,  6.53900e-01, -8.01300e-02,  1.63900e-02, -4.63100e-03,  1.10500e-03, -1.98700e-04,  1.67600e-05],
                           [-2.84700e+00,  1.03300e+00, -7.53500e-02,  9.05700e-03, -2.39100e-03,  3.25400e-04,  4.72300e-05, -5.35400e-05],
                           [-1.87100e+00,  5.42700e-01,  2.40700e-02, -4.59300e-03, -2.87100e-04, -8.77700e-05,  1.04900e-04, -4.96300e-05],
                           [-1.17900e+00,  1.55600e-01,  5.36400e-02, -6.57200e-04, -4.37300e-04, -3.28300e-04,  1.20400e-04, -1.90100e-05],
                           [-6.87600e-01, -4.06400e-02,  3.40400e-02,  4.13800e-03,  6.07300e-04, -4.65000e-04,  1.70300e-05,  2.73800e-05],
                           [-3.59200e-01, -9.87600e-02,  7.14100e-03,  3.26800e-03,  1.46300e-03, -1.10800e-04, -9.79000e-05,  2.78700e-05],
                           [-1.55400e-01, -8.77700e-02, -9.27700e-03,  3.40000e-04,  1.03500e-03,  2.91800e-04, -6.48000e-05, -3.24500e-06],
                           [-4.11600e-02, -5.21200e-02, -1.49500e-02, -1.47300e-03,  1.23500e-04,  3.34300e-04,  3.62200e-05, -1.40000e-05],
                           [ 1.20000e-02, -1.55100e-02, -1.35200e-02, -1.98000e-03, -3.86800e-04,  1.30800e-04,  7.66000e-05, -4.05600e-06],
                           [ 2.74200e-02,  1.07100e-02, -8.14400e-03, -1.82700e-03, -4.26700e-04, -5.80400e-05,  4.72100e-05,  2.78100e-06]])
#  gRO2(+M) <=> gQOOH[O](+M)                           1.000e+00 0.000     0.000
#      TCHEB/ 180.000   1500.000 /
#      PCHEB/ 0.010     98.692   /
#      CHEB/ 10 8/
#      CHEB/ -7.561e+00   1.109e+00    -1.684e-01   1.883e-02    5.147e-03   /
#      CHEB/ -5.729e-04   -5.416e-04   5.357e-05    3.985e+00    9.823e-01   /
#      CHEB/ 8.605e-03    -1.357e-02   5.188e-03    1.720e-03    -1.153e-03  /
#      CHEB/ -1.766e-06   -3.741e+00   -5.983e-02   5.508e-02    2.899e-02   /
#      CHEB/ -5.014e-03   -2.130e-03   3.509e-04    2.922e-04    -1.987e+00  /
#      CHEB/ -1.768e-01   -3.355e-02   1.786e-02    4.527e-03    -2.478e-03  /
#      CHEB/ -5.595e-04   3.886e-04    -9.183e-01   1.831e-02    -2.074e-02  /
#      CHEB/ -1.618e-02   1.522e-03    1.680e-03    -1.210e-04   -1.972e-04  /
#      CHEB/ -4.339e-01   6.612e-02    2.959e-02    -1.287e-02   -5.631e-03  /
#      CHEB/ 8.866e-04    9.329e-04    -6.815e-05   -2.174e-01   -1.620e-02  /
#      CHEB/ 2.423e-02    5.024e-03    -1.751e-03   -1.184e-03   8.296e-05   /
#      CHEB/ 2.136e-04    -9.617e-02   -6.729e-02   -1.358e-02   4.303e-03   /
#      CHEB/ 4.091e-03    2.527e-04    -7.747e-04   -1.166e-04   -1.663e-02  /
#      CHEB/ -3.674e-02   -2.893e-02   -5.493e-03   1.727e-03    1.629e-03   /
#      CHEB/ 3.466e-07    -3.067e-04   2.296e-02    8.927e-03    -9.520e-03  /
#      CHEB/ -7.145e-03   -2.941e-03   2.552e-04    6.034e-04    7.845e-05   /

# Reaction 6
chebyshev_reaction('gQOOHa (+ M) <=> gQOOH[O] (+ M)',
                   Tmin=180.0, Tmax=1500.0,
                   Pmin=(0.01, 'atm'), Pmax=(98.692, 'atm'),
                   coeffs=[[-1.04900e+01, -1.52500e-01, -2.30000e-01,  2.47600e-02,  8.81800e-03, -8.07300e-04, -9.29700e-04, -1.32500e-05],
                           [ 4.78100e+00,  1.78200e+00,  6.38300e-02, -6.58500e-03, -6.38100e-04,  2.90100e-03, -5.47200e-04, -3.27100e-04],
                           [-3.99000e+00,  2.34500e-01,  1.35300e-01,  4.86200e-02, -9.03300e-03, -4.05000e-03,  1.10400e-03,  4.91100e-04],
                           [-2.41800e+00, -8.97900e-02,  1.90300e-02,  2.60900e-02,  7.04300e-03, -2.77300e-03, -9.52900e-04,  3.56300e-04],
                           [-1.23000e+00, -2.61700e-02,  1.66300e-02, -1.24000e-02,  2.58700e-03,  2.78900e-03, -3.88400e-04, -4.45800e-04],
                           [-5.99800e-01, -5.23400e-02,  4.24000e-02, -3.08800e-03, -5.59400e-03,  9.90600e-04,  9.02800e-04, -1.00500e-04],
                           [-2.78400e-01, -1.36600e-01,  5.63500e-03,  1.57200e-02,  1.16500e-04, -1.64600e-03,  4.62500e-05,  2.95900e-04],
                           [-9.41100e-02, -1.41800e-01, -5.08700e-02,  6.57200e-03,  7.35700e-03,  5.03800e-04, -6.86800e-04, -7.81900e-05],
                           [ 8.77500e-03, -5.21300e-02, -6.49200e-02, -1.33000e-02,  3.97000e-03,  2.84800e-03,  3.12400e-04, -3.16900e-04],
                           [ 5.42500e-02,  3.47900e-02, -2.79400e-02, -2.02000e-02, -3.09400e-03,  1.80600e-03,  1.05200e-03,  3.44800e-05]])

# Reaction 7
chebyshev_reaction('gQOOHg (+ M) <=> gQOOH[O] (+ M)',
                   Tmin=180.0, Tmax=1500.0,
                   Pmin=(0.01, 'atm'), Pmax=(98.692, 'atm'),
                   coeffs=[[-5.32100e+00,  3.89400e-01, -3.49900e-01,  2.95800e-02,  1.69000e-02, -1.46500e-03, -1.94000e-03,  6.32600e-05],
                           [-2.42200e+00,  1.78700e+00,  1.45100e-01, -1.97400e-02, -3.19400e-03,  3.93900e-03, -8.52700e-05, -4.64500e-04],
                           [-4.60300e+00, -2.13900e-01,  1.93000e-01,  6.14000e-02, -1.24700e-02, -5.12500e-03,  1.56100e-03,  7.59500e-04],
                           [-2.47200e+00, -4.63600e-01, -3.75300e-02,  4.16200e-02,  8.31400e-03, -2.87800e-03, -8.22700e-04,  2.91000e-04],
                           [-1.00400e+00, -1.42600e-01, -9.05100e-02, -1.43300e-02,  7.17900e-03,  3.08400e-03, -2.48000e-04, -4.48400e-04],
                           [-3.59800e-01,  6.01400e-02, -2.83800e-02, -2.68800e-02, -2.47900e-03,  2.44800e-03,  9.10200e-04, -6.87700e-05],
                           [-1.45300e-01,  5.51600e-02,  1.30200e-02, -1.14500e-02, -4.17900e-03,  3.87000e-04,  5.53800e-04,  1.93700e-04],
                           [-7.29000e-02, -7.27600e-03,  1.01300e-02, -1.54100e-03, -1.93500e-03,  3.75000e-04,  1.93400e-04, -3.84300e-05],
                           [-3.47500e-02, -2.26600e-02, -5.02800e-03,  1.69600e-03, -2.04300e-03, -1.54100e-04,  4.61900e-04, -1.42000e-05],
                           [-1.56000e-03, -1.22800e-02, -4.35300e-03,  2.22300e-03, -1.19000e-03, -1.54000e-03, -1.88300e-05,  2.79700e-04]])

# Reaction 8
chebyshev_reaction('gQOOHb (+ M) <=> gQOOH[O] (+ M)',
                   Tmin=180.0, Tmax=1500.0,
                   Pmin=(0.01, 'atm'), Pmax=(98.692, 'atm'),
                   coeffs=[[-1.28400e+01,  1.48800e+00,  4.70500e-02,  4.89100e-03, -1.77000e-02, -3.78400e-03,  5.47000e-04,  3.92300e-04],
                           [-5.43200e-01,  1.25800e+00,  8.84900e-02,  7.28800e-02,  3.25900e-02, -9.13200e-04, -5.29400e-03, -6.42000e-04],
                           [-3.85400e+00, -2.59000e-01, -1.28100e-01, -1.04200e-03,  3.31100e-03,  6.44000e-03,  2.67800e-03, -3.19000e-04],
                           [-1.92600e+00, -2.19800e-01, -1.11300e-01, -7.11200e-03, -4.11100e-03, -3.37600e-03,  7.24000e-04,  1.13600e-03],
                           [-7.91800e-01,  4.34200e-02, -2.09600e-02, -1.46200e-02, -9.17400e-04, -1.08800e-04, -8.08900e-04, -2.36400e-04],
                           [-3.38600e-01,  7.96000e-02,  4.49100e-02, -4.98800e-03, -3.36600e-03,  1.34300e-03,  5.01100e-04, -4.46600e-04],
                           [-1.77000e-01, -1.92500e-02,  3.03800e-02,  7.14500e-03,  3.29600e-04,  5.74200e-05,  2.88100e-04,  8.40700e-05],
                           [-9.34700e-02, -7.24500e-02, -1.49600e-02,  8.26700e-04,  4.11600e-03,  1.01600e-03, -3.68700e-04, -3.57400e-05],
                           [-3.02700e-02, -3.76900e-02, -3.20800e-02, -9.42600e-03,  7.24400e-04,  1.61900e-03,  1.44900e-04, -1.97400e-04],
                           [ 8.44000e-03,  1.67400e-02, -1.05200e-02, -9.64100e-03, -3.83600e-03, -6.21200e-05,  6.16900e-04,  1.06100e-04]])

# Reaction 9
chebyshev_reaction('O2 + gR (+ M) <=> gQOOH[O] (+ M)',
                   Tmin=180.0, Tmax=1500.0,
                   Pmin=(0.01, 'atm'), Pmax=(98.692, 'atm'),
                   coeffs=[[ 3.41300e+00,  8.97000e-01, -4.31400e-01, -5.15400e-02,  3.64000e-02,  9.45800e-03, -7.18400e-03, -1.50200e-03],
                           [-4.32700e+00,  8.20100e-01,  2.98700e-01,  4.39100e-02, -4.38900e-02, -7.58300e-03,  8.45900e-03,  1.32100e-03],
                           [-2.90000e+00,  7.58900e-02,  3.55900e-02,  4.45700e-02,  6.43000e-03, -6.13200e-03, -1.41600e-03,  7.74400e-04],
                           [-1.40400e+00, -3.02700e-03, -5.33800e-02, -8.65700e-03,  1.21400e-02,  9.85400e-04, -1.24200e-03, -2.75800e-04],
                           [-5.80000e-01,  1.30300e-01,  8.21900e-03, -3.32300e-02, -2.42400e-03,  3.14800e-03,  6.64800e-04, -3.81900e-04],
                           [-2.64500e-01,  1.07000e-01,  6.54800e-02, -1.04700e-02, -8.78200e-03, -2.48100e-04,  1.04600e-03,  1.53700e-04],
                           [-1.58300e-01, -1.69600e-02,  4.39100e-02,  1.29400e-02, -1.60200e-03, -1.80200e-03, -2.07600e-04,  2.63900e-04],
                           [-8.73000e-02, -8.56300e-02, -9.18100e-03,  8.64900e-03,  5.22200e-03,  6.08000e-04, -8.27900e-04, -2.15700e-04],
                           [-2.51900e-02, -5.65100e-02, -3.43800e-02, -4.02500e-03,  2.36400e-03,  1.96800e-03,  1.10600e-04, -3.11000e-04],
                           [ 1.87100e-02, -5.69700e-03, -1.52500e-02, -8.58500e-03, -2.74100e-03,  4.43000e-04,  7.08400e-04,  8.96300e-05]])
#  gRO2(+M) <=> gQOOHa(+M)                             1.000e+00 0.000     0.000
#      TCHEB/ 180.000   1500.000 /
#      PCHEB/ 0.010     98.692   /
#      CHEB/ 10 8/
#      CHEB/ -2.604e-01   5.027e-01    -7.531e-03   1.155e-02    8.182e-05   /
#      CHEB/ -3.458e-04   1.095e-04    -4.063e-05   3.278e+00    8.638e-01   /
#      CHEB/ 6.962e-03    1.904e-02    6.885e-04    -6.017e-04   1.243e-04   /
#      CHEB/ -7.750e-05   -2.177e+00   5.122e-01    5.214e-02    1.144e-02   /
#      CHEB/ 1.536e-03    -3.424e-04   -9.490e-05   -6.962e-05   -1.796e+00  /
#      CHEB/ 1.187e-01    7.846e-02    8.170e-03    1.711e-03    -3.684e-05  /
#      CHEB/ -2.855e-04   -6.152e-05   -1.252e+00   -1.632e-01   6.170e-02   /
#      CHEB/ 1.076e-02    1.484e-03    1.043e-04    -3.244e-04   -4.598e-05  /
#      CHEB/ -6.681e-01   -2.709e-01   1.316e-02    1.321e-02    1.846e-03   /
#      CHEB/ 7.034e-05    -2.147e-04   -1.241e-05   -2.677e-01   -2.345e-01  /
#      CHEB/ -3.548e-02   9.371e-03    2.825e-03    1.566e-04    -4.585e-05  /
#      CHEB/ 2.804e-05    -3.203e-02   -1.285e-01   -5.870e-02   -4.987e-04  /
#      CHEB/ 3.194e-03    6.074e-04    1.241e-04    4.017e-05    4.616e-02   /
#      CHEB/ -2.172e-02   -5.144e-02   -1.051e-02   1.909e-03    1.224e-03   /
#      CHEB/ 2.972e-04    2.939e-06    6.910e-02    4.712e-02    -2.538e-02  /
#      CHEB/ -1.470e-02   -6.286e-04   1.471e-03    4.495e-04    -5.576e-05  /
#  gQOOH[O](+M) <=> gQOOHa(+M)                         1.000e+00 0.000     0.000
#      TCHEB/ 180.000   1500.000 /
#      PCHEB/ 0.010     98.692   /
#      CHEB/ 10 8/
#      CHEB/ 1.075e+00    -1.525e-01   -2.300e-01   2.476e-02    8.818e-03   /
#      CHEB/ -8.073e-04   -9.297e-04   -1.325e-05   -3.680e+00   1.782e+00   /
#      CHEB/ 6.383e-02    -6.585e-03   -6.381e-04   2.901e-03    -5.472e-04  /
#      CHEB/ -3.271e-04   -4.002e+00   2.345e-01    1.353e-01    4.862e-02   /
#      CHEB/ -9.033e-03   -4.050e-03   1.104e-03    4.911e-04    -2.469e+00  /
#      CHEB/ -8.979e-02   1.903e-02    2.609e-02    7.043e-03    -2.773e-03  /
#      CHEB/ -9.529e-04   3.563e-04    -1.255e+00   -2.617e-02   1.663e-02   /
#      CHEB/ -1.240e-02   2.587e-03    2.789e-03    -3.884e-04   -4.458e-04  /
#      CHEB/ -6.091e-01   -5.234e-02   4.240e-02    -3.088e-03   -5.594e-03  /
#      CHEB/ 9.906e-04    9.028e-04    -1.005e-04   -2.817e-01   -1.366e-01  /
#      CHEB/ 5.635e-03    1.572e-02    1.165e-04    -1.646e-03   4.625e-05   /
#      CHEB/ 2.959e-04    -9.540e-02   -1.418e-01   -5.087e-02   6.572e-03   /
#      CHEB/ 7.357e-03    5.038e-04    -6.868e-04   -7.819e-05   8.310e-03   /
#      CHEB/ -5.213e-02   -6.492e-02   -1.330e-02   3.970e-03    2.848e-03   /