units(length='cm', time='s', quantity='mol', act_energy='kcal/mol')

ideal_gas(name='gas',
          elements="H D T C Ci O Oi N Ne Ar He Si S F Cl Br I X",
          species="""OH             bQOOH[O]       acetone
                     H2O            balkoxyketone  ibutenol
                     trisub_epoxy   bQOOHg         CH2O
                     galkene        O2             bR
                     bQOOHa         bRO2           disub_epoxy
                     HO2""",
          reactions='all',
          initial_state=state(temperature=300.0, pressure=OneAtm))

#-------------------------------------------------------------------------------
# Element data
#-------------------------------------------------------------------------------

element(symbol='Ci', atomic_mass=13.003)
element(symbol='D', atomic_mass=2.014)
element(symbol='Oi', atomic_mass=18.0)
element(symbol='T', atomic_mass=3.016)
element(symbol='X', atomic_mass=195.083)
#-------------------------------------------------------------------------------
# Species data
#-------------------------------------------------------------------------------

species(name='OH',
        atoms='H:1 O:1',
        thermo=(NASA([10.00, 984.14],
                     [ 3.49686242E+00,  1.83973160E-04, -9.97634499E-07,
                       1.56942783E-09, -6.10128175E-13,  3.41673934E+03,
                       1.48093120E+00]),
                NASA([984.14, 3000.00],
                     [ 3.45221464E+00, -2.95124034E-04,  7.39418622E-07,
                      -2.89309866E-10,  3.53041498E-14,  3.45751599E+03,
                       1.85813897E+00])))

species(name='bQOOH[O]',
        atoms='C:4 H:9 O:3',
        thermo=(NASA([10.00, 338.69],
                     [ 3.60915854E+00,  3.39069566E-02,  2.22227265E-04,
                      -8.23527342E-07,  8.56246333E-10, -2.19599238E+04,
                       1.23284605E+01]),
                NASA([338.69, 3000.00],
                     [ 5.03198881E+00,  5.46235886E-02, -3.56935806E-05,
                       1.12371751E-08, -1.35390171E-12, -2.22715065E+04,
                       3.82760723E+00])))

species(name='acetone',
        atoms='C:3 H:6 O:1',
        thermo=(NASA([10.00, 414.35],
                     [ 3.73496166E+00,  3.05743218E-02, -1.26253585E-04,
                       3.66080978E-07, -3.31430437E-10, -2.70408616E+04,
                       8.24936012E+00]),
                NASA([414.35, 3000.00],
                     [ 1.70010292E-01,  3.28431468E-02, -1.80960132E-05,
                       4.82960690E-09, -5.02388538E-13, -2.64694785E+04,
                       2.56372653E+01])))

species(name='H2O',
        atoms='H:2 O:1',
        thermo=(NASA([10.00, 773.84],
                     [ 4.00473541E+00, -2.39729134E-04,  8.11862955E-07,
                       1.47891862E-09, -1.19783539E-12, -3.03533807E+04,
                      -9.96254147E-02]),
                NASA([773.84, 3000.00],
                     [ 3.52133374E+00,  1.05377009E-03,  6.40722099E-07,
                      -3.86240235E-10,  5.49243294E-14, -3.02424794E+04,
                       2.34173094E+00])))

species(name='balkoxyketone',
        atoms='C:4 H:7 O:2',
        thermo=(NASA([10.00, 269.93],
                     [ 3.81931151E+00,  1.68519318E-02,  2.42742224E-04,
                      -9.64821161E-07,  1.18509335E-09, -1.94992162E+04,
                       1.20521854E+01]),
                NASA([269.93, 3000.00],
                     [ 3.57555944E+00,  4.28868089E-02, -2.65390705E-05,
                       7.99659117E-09, -9.32983470E-13, -1.95677443E+04,
                       1.13957990E+01])))

species(name='ibutenol',
        atoms='C:4 H:8 O:1',
        thermo=(NASA([10.00, 135.97],
                     [ 3.95714996E+00,  5.72646980E-03,  4.63611760E-04,
                      -3.04137514E-06,  6.85019471E-09, -2.36290326E+04,
                       8.21931848E+00]),
                NASA([135.97, 3000.00],
                     [ 3.32467612E+00,  3.69033556E-02, -1.89960416E-05,
                       4.73417677E-09, -4.59705291E-13, -2.36234540E+04,
                       9.58133237E+00])))

species(name='trisub_epoxy',
        atoms='C:4 H:8 O:2',
        thermo=(NASA([10.00, 209.19],
                     [ 3.75295042E+00,  2.37546930E-02,  1.26610110E-04,
                      -4.78364365E-07,  5.79468168E-10, -3.96011181E+04,
                       1.12739684E+01]),
                NASA([209.19, 3000.00],
                     [ 2.64185254E+00,  4.50006531E-02, -2.57361066E-05,
                       7.15266054E-09, -7.72980731E-13, -3.95546326E+04,
                       1.48960343E+01])))

species(name='bQOOHg',
        atoms='C:4 H:9 O:3',
        thermo=(NASA([10.00, 441.09],
                     [ 3.56595280E+00,  3.36073467E-02,  2.03462772E-04,
                      -5.98977617E-07,  4.83271168E-10, -2.45722313E+04,
                       1.33537891E+01]),
                NASA([441.09, 3000.00],
                     [ 6.09031192E+00,  5.80517622E-02, -4.06392697E-05,
                       1.32574026E-08, -1.62501077E-12, -2.52554167E+04,
                      -1.97849715E+00])))

species(name='CH2O',
        atoms='C:1 H:2 O:1',
        thermo=(NASA([10.00, 601.31],
                     [ 4.03190845E+00, -1.93233367E-03,  8.89743345E-06,
                       2.98105926E-09, -7.90813886E-12, -1.42276270E+04,
                       3.47574660E+00]),
                NASA([601.31, 3000.00],
                     [ 1.40134195E+00,  9.48858016E-03, -4.43088317E-06,
                       9.48452194E-10, -7.43790219E-14, -1.38013869E+04,
                       1.57423780E+01])))

species(name='galkene',
        atoms='C:4 H:8 O:1',
        thermo=(NASA([10.00, 383.47],
                     [ 3.84035604E+00,  1.20378740E-02,  1.87486319E-04,
                      -5.44759148E-07,  4.80711015E-10, -2.23479959E+04,
                       1.02570291E+01]),
                NASA([383.47, 3000.00],
                     [ 4.00413385E+00,  3.79025144E-02, -2.15435710E-05,
                       6.15213311E-09, -6.97446345E-13, -2.25632853E+04,
                       6.98052628E+00])))

species(name='O2',
        atoms='O:2',
        thermo=(NASA([10.00, 605.96],
                     [ 3.50743498E+00, -4.43860349E-04,  1.45938058E-06,
                       1.61509333E-09, -2.32050052E-12, -9.24756224E+02,
                       4.72183634E+00]),
                NASA([605.96, 3000.00],
                     [ 2.87462882E+00,  2.17840991E-03, -1.18262921E-06,
                       2.86910493E-10, -2.53297146E-14, -8.19517838E+02,
                       7.69331810E+00])))

species(name='bR',
        atoms='C:4 H:9 O:1',
        thermo=(NASA([10.00, 483.43],
                     [ 3.38164846E+00,  5.97142637E-02, -1.58320095E-04,
                       3.04908893E-07, -2.13091806E-10, -1.31538802E+04,
                       1.09226843E+01]),
                NASA([483.43, 3000.00],
                     [ 2.33428824E+00,  4.22094427E-02, -2.28029290E-05,
                       6.04614564E-09, -6.30240159E-13, -1.27467983E+04,
                       1.83772893E+01])))

species(name='bQOOHa',
        atoms='C:4 H:9 O:3',
        thermo=(NASA([10.00, 390.53],
                     [ 3.54969236E+00,  3.76592474E-02,  1.76622653E-04,
                      -5.98063750E-07,  5.45069236E-10, -2.66671624E+04,
                       1.31518761E+01]),
                NASA([390.53, 3000.00],
                     [ 5.33564209E+00,  5.64935715E-02, -3.83214298E-05,
                       1.22990604E-08, -1.49549987E-12, -2.70897723E+04,
                       2.59015836E+00])))

species(name='bRO2',
        atoms='C:4 H:9 O:3',
        thermo=(NASA([10.00, 461.39],
                     [ 3.53964713E+00,  3.88723795E-02,  9.57420148E-05,
                      -2.80380499E-07,  2.09647462E-10, -3.44964131E+04,
                       1.18803618E+01]),
                NASA([461.39, 3000.00],
                     [ 3.47201723E+00,  6.00510247E-02, -4.00567321E-05,
                       1.25663813E-08, -1.49496682E-12, -3.47093599E+04,
                       9.77903975E+00])))

species(name='disub_epoxy',
        atoms='C:4 H:8 O:2',
        thermo=(NASA([10.00, 549.41],
                     [ 3.89863211E+00,  5.97532637E-03,  1.66685676E-04,
                      -3.10743768E-07,  1.78330192E-10, -3.71101826E+04,
                       1.13847308E+01]),
                NASA([549.41, 3000.00],
                     [-6.40277648E-01,  6.05960003E-02, -4.13427220E-05,
                       1.31555461E-08, -1.57685017E-12, -3.69370657E+04,
                       2.76005436E+01])))

species(name='HO2',
        atoms='H:1 O:2',
        thermo=(NASA([10.00, 891.11],
                     [ 4.02887004E+00, -1.75769289E-03,  1.08726004E-05,
                      -1.13812972E-08,  3.90113097E-12,  4.95165001E+02,
                       4.69302008E+00]),
                NASA([891.11, 3000.00],
                     [ 3.06571044E+00,  4.28505005E-03, -2.19325920E-06,
                       5.58882699E-10, -5.61246669E-14,  5.98557610E+02,
                       8.84564156E+00])))

#-------------------------------------------------------------------------------
# Reaction data
#-------------------------------------------------------------------------------

# Reaction 1
chebyshev_reaction('bQOOHg (+ M) <=> bRO2 (+ M)',
                   Tmin=180.0, Tmax=1500.0,
                   Pmin=(0.01, 'atm'), Pmax=(98.692, 'atm'),
                   coeffs=[[ 2.87800e+00,  3.82700e-01, -8.32600e-02, -1.06700e-03,  1.53400e-03,  3.30200e-04, -4.23000e-06, -2.34300e-05],
                           [ 3.58900e+00,  7.01800e-01, -1.44900e-01, -5.35300e-03,  3.07400e-03,  6.90100e-04, -1.02200e-05, -4.37200e-05],
                           [ 6.61500e-01,  5.39600e-01, -9.20500e-02, -1.20000e-02,  2.71100e-03,  7.81300e-04, -5.80200e-06, -3.75400e-05],
                           [-2.50200e-01,  3.44800e-01, -3.51500e-02, -1.60500e-02,  1.44200e-03,  8.83800e-04,  2.64700e-05, -3.33900e-05],
                           [-2.70200e-01,  1.80400e-01,  3.22200e-03, -1.41200e-02, -4.80700e-04,  8.52400e-04,  9.63200e-05, -3.00100e-05],
                           [-1.12500e-01,  7.55500e-02,  1.71500e-02, -7.89200e-03, -2.02600e-03,  5.68900e-04,  1.76000e-04, -1.90500e-05],
                           [-3.12000e-02,  2.50500e-02,  1.48100e-02, -1.66300e-03, -2.35900e-03,  1.08200e-04,  2.09200e-04,  4.59700e-06],
                           [-1.67300e-02,  7.27000e-03,  7.67000e-03,  1.66600e-03, -1.59100e-03, -2.87100e-04,  1.60400e-04,  3.26700e-05],
                           [-1.52700e-02,  2.79600e-03,  2.51100e-03,  2.08800e-03, -5.21000e-04, -4.21500e-04,  5.47000e-05,  4.77700e-05],
                           [-9.31000e-03,  1.53200e-03,  4.44700e-04,  1.21700e-03,  1.60700e-04, -3.07400e-04, -4.13900e-05,  3.96900e-05]])

# Reaction 2
chebyshev_reaction('bQOOHa (+ M) <=> bRO2 (+ M)',
                   Tmin=180.0, Tmax=1500.0,
                   Pmin=(0.01, 'atm'), Pmax=(98.692, 'atm'),
                   coeffs=[[ 4.05200e+00,  8.58100e-01, -1.17000e-01, -1.58800e-02,  7.26400e-04,  5.75200e-04,  9.19300e-05, -4.54100e-06],
                           [ 2.14900e+00,  1.25300e+00, -1.19400e-01, -3.02400e-02, -2.57700e-03,  8.11300e-04,  3.04500e-04,  5.01900e-05],
                           [ 3.34900e-01,  4.52500e-01,  3.21700e-02, -9.89700e-03, -8.46700e-03, -9.14600e-04,  4.29400e-04,  1.88100e-04],
                           [-1.08500e-01,  3.98000e-02,  4.96000e-02,  1.18300e-02, -4.63300e-03, -2.71700e-03, -1.53400e-04,  2.45600e-04],
                           [-1.39300e-01,  1.71000e-02,  5.85100e-05,  1.13100e-02,  3.43600e-03, -1.71100e-03, -9.07100e-04, -1.83800e-06],
                           [-9.30100e-02,  6.92400e-02, -2.16000e-02,  2.25300e-04,  5.00100e-03,  6.90100e-04, -6.97500e-04, -3.03300e-04],
                           [-4.92800e-02,  5.81400e-02, -1.10500e-02, -4.50800e-03,  1.41800e-03,  1.48300e-03,  8.33000e-05, -2.67300e-04],
                           [-2.21600e-02,  2.09800e-02,  1.79000e-03, -3.11200e-03, -1.03000e-03,  7.16100e-04,  4.15400e-04, -1.87800e-05],
                           [-9.67000e-03,  1.03200e-03,  5.45100e-03, -1.21200e-03, -1.07400e-03, -1.25600e-05,  2.47600e-04,  1.06300e-04],
                           [-4.88700e-03, -1.56000e-03,  3.69800e-03, -2.73900e-04, -4.97300e-04, -1.92700e-04,  5.18500e-05,  7.34300e-05]])

# Reaction 3
chebyshev_reaction('bQOOH[O] (+ M) <=> bRO2 (+ M)',
                   Tmin=180.0, Tmax=1500.0,
                   Pmin=(0.01, 'atm'), Pmax=(98.692, 'atm'),
                   coeffs=[[ 9.01100e+00,  1.08200e+00, -2.55400e-01,  9.60400e-04,  1.05600e-02, -8.59000e-04, -9.47600e-04,  2.05300e-04],
                           [-4.06900e-02,  8.60100e-01, -1.15300e-02, -5.92100e-02, -4.69900e-03,  6.40300e-03,  4.62600e-04, -8.81400e-04],
                           [-4.39800e-01,  2.64900e-01,  6.66600e-02, -5.35400e-03, -1.65600e-02, -1.32600e-03,  2.47100e-03,  3.71000e-04],
                           [-2.42300e-01,  1.37100e-01,  2.05300e-02,  1.37300e-02, -4.91000e-03, -4.79200e-03,  1.50100e-04,  9.60100e-04],
                           [-1.42700e-01,  9.15600e-02, -2.43700e-04,  7.72100e-03,  2.26800e-03, -2.29800e-03, -1.23000e-03,  2.65000e-04],
                           [-8.26900e-02,  5.48800e-02, -2.68700e-03,  1.39700e-03,  2.85000e-03,  6.12200e-05, -9.05400e-04, -2.81600e-04],
                           [-4.42100e-02,  2.95800e-02, -1.68200e-03, -1.03000e-03,  1.56000e-03,  7.92800e-04, -2.49100e-04, -3.24200e-04],
                           [-2.17800e-02,  1.40800e-02, -4.92600e-04, -1.29600e-03,  4.52800e-04,  6.47400e-04,  1.15400e-04, -1.59600e-04],
                           [-1.10200e-02,  7.00900e-03, -4.78600e-05, -9.63600e-04, -3.87100e-05,  3.27400e-04,  1.74400e-04, -1.82700e-05],
                           [-5.53300e-03,  3.13600e-03,  3.81200e-04, -5.38100e-04, -2.29300e-04,  1.06700e-04,  1.24800e-04,  3.52800e-05]])

# Reaction 4
chebyshev_reaction('O2 + bR (+ M) <=> bRO2 (+ M)',
                   Tmin=180.0, Tmax=1500.0,
                   Pmin=(0.01, 'atm'), Pmax=(98.692, 'atm'),
                   coeffs=[[ 1.26000e+01,  2.58800e-01, -5.88400e-02,  1.86600e-03,  3.58400e-04,  1.93100e-04, -1.18700e-05, -1.63700e-06],
                           [-4.77100e-01,  4.56000e-01, -9.48600e-02, -8.41600e-04,  1.29500e-03,  2.64200e-04,  1.11000e-05, -9.06900e-06],
                           [-2.54600e-01,  3.15000e-01, -4.70900e-02, -8.06600e-03,  1.48600e-03,  2.49200e-04,  3.06300e-05, -7.92900e-06],
                           [-1.68200e-01,  1.73800e-01, -7.58900e-03, -1.00700e-02,  3.78700e-04,  3.59100e-04,  4.33300e-05, -4.58800e-06],
                           [-9.61700e-02,  8.07700e-02,  8.99400e-03, -6.55800e-03, -9.56100e-04,  3.01600e-04,  7.87200e-05, -8.04100e-07],
                           [-5.46000e-02,  3.70700e-02,  9.08100e-03, -2.09800e-03, -1.32800e-03,  4.25100e-05,  9.48600e-05,  1.00300e-05],
                           [-3.38700e-02,  2.08200e-02,  4.68100e-03,  1.57300e-04, -8.24500e-04, -1.69200e-04,  5.47700e-05,  2.14900e-05],
                           [-2.21800e-02,  1.33300e-02,  2.14000e-03,  3.68300e-04, -2.27400e-04, -1.82100e-04, -6.76200e-06,  2.00700e-05],
                           [-1.36700e-02,  7.26800e-03,  1.70800e-03,  9.46700e-07,  1.59100e-05, -7.95300e-05, -3.54800e-05,  6.60100e-06],
                           [-7.18400e-03,  2.35300e-03,  1.71200e-03, -9.35200e-05, -6.25300e-06, -2.21500e-06, -2.42500e-05, -5.14000e-06]])
#  bRO2(+M) <=> bQOOHg(+M)                             1.000e+00 0.000     0.000
#      TCHEB/ 180.000   1500.000 /
#      PCHEB/ 0.010     98.692   /
#      CHEB/ 10 8/
#      CHEB/ -9.578e+00   3.827e-01    -8.326e-02   -1.067e-03   1.534e-03   /
#      CHEB/ 3.302e-04    -4.230e-06   -2.343e-05   1.452e+01    7.018e-01   /
#      CHEB/ -1.449e-01   -5.353e-03   3.074e-03    6.901e-04    -1.022e-05  /
#      CHEB/ -4.372e-05   8.072e-01    5.396e-01    -9.205e-02   -1.200e-02  /
#      CHEB/ 2.711e-03    7.813e-04    -5.802e-06   -3.754e-05   -2.131e-01  /
#      CHEB/ 3.448e-01    -3.515e-02   -1.605e-02   1.442e-03    8.838e-04   /
#      CHEB/ 2.647e-05    -3.339e-05   -2.645e-01   1.804e-01    3.222e-03   /
#      CHEB/ -1.412e-02   -4.807e-04   8.524e-04    9.632e-05    -3.001e-05  /
#      CHEB/ -1.126e-01   7.555e-02    1.715e-02    -7.892e-03   -2.026e-03  /
#      CHEB/ 5.689e-04    1.760e-04    -1.905e-05   -3.178e-02   2.505e-02   /
#      CHEB/ 1.481e-02    -1.663e-03   -2.359e-03   1.082e-04    2.092e-04   /
#      CHEB/ 4.597e-06    -1.718e-02   7.270e-03    7.670e-03    1.666e-03   /
#      CHEB/ -1.591e-03   -2.871e-04   1.604e-04    3.267e-05    -1.560e-02  /
#      CHEB/ 2.796e-03    2.511e-03    2.088e-03    -5.210e-04   -4.215e-04  /
#      CHEB/ 5.470e-05    4.777e-05    -9.496e-03   1.532e-03    4.447e-04   /
#      CHEB/ 1.217e-03    1.607e-04    -3.074e-04   -4.139e-05   3.969e-05   /

# Reaction 5
chebyshev_reaction('bQOOHa (+ M) <=> bQOOHg (+ M)',
                   Tmin=180.0, Tmax=1500.0,
                   Pmin=(0.01, 'atm'), Pmax=(98.692, 'atm'),
                   coeffs=[[-6.98500e+00, -1.56000e-01, -3.22700e-01, -2.01600e-02,  7.73900e-03,  1.21500e-03, -5.20200e-04, -7.38800e-05],
                           [ 9.51500e+00,  1.72300e+00, -7.76900e-02, -5.12700e-02, -1.31800e-02,  2.45300e-03,  1.66700e-03, -8.41100e-05],
                           [ 6.45700e-01,  6.86800e-01, -1.18800e-02,  8.61400e-03, -4.51200e-03, -4.91500e-03, -2.27800e-04,  6.48300e-04],
                           [-4.57600e-01,  3.68400e-01, -2.21100e-02, -5.37600e-03,  8.78500e-03, -2.45700e-04, -1.89700e-03, -3.12500e-04],
                           [-2.24400e-01,  1.66600e-01,  1.72000e-02, -1.79000e-02,  1.42100e-03,  3.64300e-03,  4.39400e-05, -6.84400e-04],
                           [-3.52300e-02,  4.41300e-02,  2.69100e-02, -6.41400e-03, -4.86700e-03,  1.46400e-03,  1.17000e-03, -2.91500e-05],
                           [ 1.62500e-02,  2.77800e-03,  1.28400e-02,  3.41600e-03, -3.25100e-03, -8.98700e-04,  5.27400e-04,  3.37600e-04],
                           [ 1.53600e-02,  1.40600e-03,  4.40300e-03,  3.18800e-03, -8.47500e-04, -8.59900e-04, -2.35800e-05,  1.54600e-04],
                           [-5.21100e-03,  9.72400e-03,  6.93800e-04,  6.15600e-04,  3.09000e-04, -2.64700e-04, -1.49400e-04, -9.95200e-06],
                           [ 1.33600e-03, -6.73400e-03,  1.85700e-03,  1.52000e-03,  1.12500e-04, -3.11700e-04, -7.19500e-05,  3.04900e-05]])

# Reaction 6
chebyshev_reaction('bQOOH[O] (+ M) <=> bQOOHg (+ M)',
                   Tmin=180.0, Tmax=1500.0,
                   Pmin=(0.01, 'atm'), Pmax=(98.692, 'atm'),
                   coeffs=[[-3.43200e-01, -2.46300e-01, -3.58400e-01, -1.40000e-02,  1.55300e-02,  5.18800e-04, -1.91600e-03,  6.53000e-05],
                           [ 4.89000e+00,  1.52000e+00, -6.03000e-02, -5.40700e-02, -1.68900e-02,  5.49700e-03,  2.65500e-03, -8.43800e-04],
                           [ 3.52000e-01,  7.44700e-01, -8.39600e-03,  1.73600e-03, -9.54100e-03, -5.66600e-03,  1.32800e-03,  1.21300e-03],
                           [-4.31900e-01,  3.95000e-01, -8.68100e-04, -5.93400e-03,  5.14500e-03, -2.15700e-03, -1.95300e-03,  2.66600e-04],
                           [-2.37000e-01,  1.57200e-01,  1.89500e-02, -1.01900e-02,  2.86500e-03,  1.97300e-03, -9.74000e-04, -6.79200e-04],
                           [-4.01000e-02,  4.50500e-02,  1.84400e-02, -4.44400e-03, -1.37000e-03,  1.81000e-03,  4.17700e-04, -4.04700e-04],
                           [ 1.19700e-02,  1.34400e-02,  9.77300e-03,  4.32100e-05, -2.34300e-03,  5.00100e-04,  6.78600e-04,  2.23900e-05],
                           [ 1.29500e-02,  6.07700e-03,  3.89000e-03,  1.69300e-03, -1.51400e-03, -4.13200e-04,  4.03400e-04,  1.86300e-04],
                           [-5.27200e-04,  4.09800e-03,  1.34800e-03,  1.38100e-03, -3.57100e-04, -5.84300e-04,  4.12400e-05,  1.59100e-04],
                           [-4.54000e-03,  1.28900e-03,  7.99900e-04,  7.88600e-04,  1.51500e-04, -3.39000e-04, -1.29300e-04,  6.45100e-05]])

# Reaction 7
chebyshev_reaction('O2 + bR (+ M) <=> bQOOHg (+ M)',
                   Tmin=180.0, Tmax=1500.0,
                   Pmin=(0.01, 'atm'), Pmax=(98.692, 'atm'),
                   coeffs=[[ 6.56300e+00, -1.16400e+00, -1.84100e-01,  8.69000e-03, -1.78000e-03,  1.38200e-03, -1.78500e-05, -5.34700e-05],
                           [ 1.76700e+00,  1.31900e+00, -2.21700e-01, -2.52400e-02,  7.63100e-03,  3.07200e-05,  3.53900e-04, -4.99300e-05],
                           [ 1.81200e-01,  7.50300e-01, -5.10000e-02, -4.06100e-02,  3.37200e-03,  1.78000e-03, -8.99400e-05,  7.08400e-06],
                           [-1.69000e-01,  2.88600e-01,  4.33200e-02, -2.88400e-02, -3.71600e-03,  2.15700e-03,  1.58400e-04, -8.44800e-05],
                           [-8.93000e-02,  6.73000e-02,  4.95300e-02, -7.63800e-03, -6.29400e-03,  7.21700e-04,  5.31900e-04, -6.87600e-05],
                           [-2.39000e-05,  1.05900e-02,  2.40000e-02,  4.03700e-03, -4.13300e-03, -6.32100e-04,  4.66100e-04,  4.57500e-05],
                           [ 2.07700e-02,  4.97700e-03,  9.00400e-03,  3.91500e-03, -1.01300e-03, -9.07000e-04,  1.38600e-04,  1.13200e-04],
                           [ 1.35100e-02,  5.61300e-03,  3.77700e-03,  2.01500e-03, -5.37600e-05, -4.47600e-04, -6.80000e-05,  7.79600e-05],
                           [ 3.30300e-04,  6.17600e-05,  3.85800e-03,  5.12800e-04,  1.97300e-04, -2.12900e-04, -8.51900e-05,  3.68300e-05],
                           [-4.35200e-03, -6.61800e-04,  9.58000e-04,  1.14200e-03,  7.26600e-07, -1.14500e-04, -5.40100e-05,  5.90600e-06]])
#  bRO2(+M) <=> bQOOHa(+M)                             1.000e+00 0.000     0.000
#      TCHEB/ 180.000   1500.000 /
#      PCHEB/ 0.010     98.692   /
#      CHEB/ 10 8/
#      CHEB/ -5.679e+00   8.581e-01    -1.170e-01   -1.588e-02   7.264e-04   /
#      CHEB/ 5.752e-04    9.193e-05    -4.541e-06   1.071e+01    1.253e+00   /
#      CHEB/ -1.194e-01   -3.024e-02   -2.577e-03   8.113e-04    3.045e-04   /
#      CHEB/ 5.019e-05    3.899e-01    4.525e-01    3.217e-02    -9.897e-03  /
#      CHEB/ -8.467e-03   -9.146e-04   4.294e-04    1.881e-04    -1.072e-01  /
#      CHEB/ 3.980e-02    4.960e-02    1.183e-02    -4.633e-03   -2.717e-03  /
#      CHEB/ -1.534e-04   2.456e-04    -1.441e-01   1.710e-02    5.851e-05   /
#      CHEB/ 1.131e-02    3.436e-03    -1.711e-03   -9.071e-04   -1.838e-06  /
#      CHEB/ -9.577e-02   6.924e-02    -2.160e-02   2.253e-04    5.001e-03   /
#      CHEB/ 6.901e-04    -6.975e-04   -3.033e-04   -5.062e-02   5.814e-02   /
#      CHEB/ -1.105e-02   -4.508e-03   1.418e-03    1.483e-03    8.330e-05   /
#      CHEB/ -2.673e-04   -2.288e-02   2.098e-02    1.790e-03    -3.112e-03  /
#      CHEB/ -1.030e-03   7.161e-04    4.154e-04    -1.878e-05   -1.002e-02  /
#      CHEB/ 1.032e-03    5.451e-03    -1.212e-03   -1.074e-03   -1.256e-05  /
#      CHEB/ 2.476e-04    1.063e-04    -5.006e-03   -1.560e-03   3.698e-03   /
#      CHEB/ -2.739e-04   -4.973e-04   -1.927e-04   5.185e-05    7.343e-05   /
#  bQOOHg(+M) <=> bQOOHa(+M)                           1.000e+00 0.000     0.000
#      TCHEB/ 180.000   1500.000 /
#      PCHEB/ 0.010     98.692   /
#      CHEB/ 10 8/
#      CHEB/ -4.260e+00   -1.560e-01   -3.227e-01   -2.016e-02   7.739e-03   /
#      CHEB/ 1.215e-03    -5.202e-04   -7.388e-05   7.143e+00    1.723e+00   /
#      CHEB/ -7.769e-02   -5.127e-02   -1.318e-02   2.453e-03    1.667e-03   /
#      CHEB/ -8.411e-05   5.549e-01    6.868e-01    -1.188e-02   8.614e-03   /
#      CHEB/ -4.512e-03   -4.915e-03   -2.278e-04   6.483e-04    -4.934e-01  /
#      CHEB/ 3.684e-01    -2.211e-02   -5.376e-03   8.785e-03    -2.457e-04  /
#      CHEB/ -1.897e-03   -3.125e-04   -2.350e-01   1.666e-01    1.720e-02   /
#      CHEB/ -1.790e-02   1.421e-03    3.643e-03    4.394e-05    -6.844e-04  /
#      CHEB/ -3.786e-02   4.413e-02    2.691e-02    -6.414e-03   -4.867e-03  /
#      CHEB/ 1.464e-03    1.170e-03    -2.915e-05   1.549e-02    2.778e-03   /
#      CHEB/ 1.284e-02    3.416e-03    -3.251e-03   -8.987e-04   5.274e-04   /
#      CHEB/ 3.376e-04    1.509e-02    1.406e-03    4.403e-03    3.188e-03   /
#      CHEB/ -8.475e-04   -8.599e-04   -2.358e-05   1.546e-04    -5.235e-03  /
#      CHEB/ 9.724e-03    6.938e-04    6.156e-04    3.090e-04    -2.647e-04  /
#      CHEB/ -1.494e-04   -9.952e-06   1.403e-03    -6.734e-03   1.857e-03   /
#      CHEB/ 1.520e-03    1.125e-04    -3.117e-04   -7.195e-05   3.049e-05   /

# Reaction 8
chebyshev_reaction('bQOOH[O] (+ M) <=> bQOOHa (+ M)',
                   Tmin=180.0, Tmax=1500.0,
                   Pmin=(0.01, 'atm'), Pmax=(98.692, 'atm'),
                   coeffs=[[ 1.92600e+00,  6.13300e-01, -5.19200e-01, -2.48200e-02,  2.42600e-02,  1.59700e-04, -2.89100e-03,  1.58000e-04],
                           [ 2.65600e+00,  1.58500e+00,  1.42700e-01, -9.31000e-02, -3.38100e-02,  7.78200e-03,  4.20400e-03, -1.03600e-03],
                           [ 9.02500e-04,  4.75000e-01,  1.21600e-01,  2.29800e-02, -2.16700e-02, -9.18000e-03,  1.84000e-03,  1.58700e-03],
                           [-3.21200e-01,  1.74700e-01,  1.59700e-02,  3.21800e-02,  4.73000e-03, -6.84100e-03, -2.52800e-03,  6.93900e-04],
                           [-2.04100e-01,  1.10000e-01, -1.09500e-02,  4.22500e-03,  9.20700e-03,  1.13600e-03, -2.10000e-03, -7.86600e-04],
                           [-5.15200e-02,  5.36700e-02, -3.40400e-03, -4.72900e-03,  3.00600e-03,  2.68900e-03,  1.81700e-05, -6.82000e-04],
                           [ 1.42900e-02,  1.60700e-02,  1.36700e-03, -2.54500e-03, -4.10900e-04,  1.05800e-03,  6.46600e-04, -6.67100e-05],
                           [ 1.85100e-02,  6.03600e-03,  2.11000e-03, -8.67900e-04, -9.94000e-04,  8.54800e-05,  4.14500e-04,  1.52300e-04],
                           [-4.74600e-03,  1.37100e-02,  5.87500e-04, -1.59400e-03, -3.69800e-04,  1.09300e-04,  5.42300e-05,  6.74400e-05],
                           [ 2.40800e-03, -6.07500e-03,  1.99600e-03,  1.45900e-03, -6.32400e-04, -4.20000e-04,  8.39500e-05,  9.74800e-05]])

# Reaction 9
chebyshev_reaction('O2 + bR (+ M) <=> bQOOHa (+ M)',
                   Tmin=180.0, Tmax=1500.0,
                   Pmin=(0.01, 'atm'), Pmax=(98.692, 'atm'),
                   coeffs=[[ 7.54400e+00, -2.72600e-02, -2.73500e-01, -5.81200e-02,  4.24600e-04,  6.93300e-03,  1.53900e-03, -7.37100e-04],
                           [ 7.89400e-01,  8.94300e-01,  1.57600e-02,  1.15300e-02, -1.19600e-02, -7.99500e-03, -5.25100e-04,  1.34400e-03],
                           [-8.09600e-02,  4.88400e-01,  1.48500e-02,  8.78200e-04,  9.10800e-05, -2.46400e-03, -1.07100e-03, -2.28800e-05],
                           [-1.63600e-01,  1.53100e-01,  1.21000e-02, -3.14700e-03,  5.27700e-03,  1.35600e-03, -9.95900e-04, -7.07000e-04],
                           [-8.80600e-02,  4.90100e-02,  2.15000e-02, -4.68500e-03, -6.67200e-04,  1.30900e-03,  4.71700e-04, -1.25700e-04],
                           [-2.58400e-03,  1.60600e-02,  1.42700e-02, -9.11800e-04, -2.09500e-03,  1.81800e-04,  5.38300e-04,  1.59700e-04],
                           [ 2.76900e-02,  4.67300e-03,  4.09500e-03,  1.41300e-03, -4.52400e-04, -3.34300e-04,  1.77300e-05,  9.99700e-05],
                           [ 1.84800e-02,  5.55500e-03,  1.47100e-03,  6.21100e-04,  1.88800e-04, -1.97900e-04, -1.29800e-04,  1.33200e-05],
                           [-9.04000e-03,  1.23500e-02,  4.44300e-03, -9.12700e-04, -7.63100e-04, -4.76300e-05,  1.20300e-04,  4.65800e-05],
                           [ 5.42500e-03, -8.15100e-03, -7.49900e-05,  9.14700e-04,  6.48700e-04,  4.01400e-05, -2.06600e-04, -8.34400e-05]])
#  bRO2(+M) <=> bQOOH[O](+M)                           1.000e+00 0.000     0.000
#      TCHEB/ 180.000   1500.000 /
#      PCHEB/ 0.010     98.692   /
#      CHEB/ 10 8/
#      CHEB/ -7.489e+00   1.082e+00    -2.554e-01   9.604e-04    1.056e-02   /
#      CHEB/ -8.590e-04   -9.476e-04   2.053e-04    1.339e+01    8.601e-01   /
#      CHEB/ -1.153e-02   -5.921e-02   -4.699e-03   6.403e-03    4.626e-04   /
#      CHEB/ -8.814e-04   -4.457e-01   2.649e-01    6.666e-02    -5.354e-03  /
#      CHEB/ -1.656e-02   -1.326e-03   2.471e-03    3.710e-04    -2.634e-01  /
#      CHEB/ 1.371e-01    2.053e-02    1.373e-02    -4.910e-03   -4.792e-03  /
#      CHEB/ 1.501e-04    9.601e-04    -1.535e-01   9.156e-02    -2.437e-04  /
#      CHEB/ 7.721e-03    2.268e-03    -2.298e-03   -1.230e-03   2.650e-04   /
#      CHEB/ -8.663e-02   5.488e-02    -2.687e-03   1.397e-03    2.850e-03   /
#      CHEB/ 6.122e-05    -9.054e-04   -2.816e-04   -4.572e-02   2.958e-02   /
#      CHEB/ -1.682e-03   -1.030e-03   1.560e-03    7.928e-04    -2.491e-04  /
#      CHEB/ -3.242e-04   -2.240e-02   1.408e-02    -4.926e-04   -1.296e-03  /
#      CHEB/ 4.528e-04    6.474e-04    1.154e-04    -1.596e-04   -1.120e-02  /
#      CHEB/ 7.009e-03    -4.786e-05   -9.636e-04   -3.871e-05   3.274e-04   /
#      CHEB/ 1.744e-04    -1.827e-05   -5.527e-03   3.136e-03    3.812e-04   /
#      CHEB/ -5.381e-04   -2.293e-04   1.067e-04    1.248e-04    3.528e-05   /
#  bQOOHg(+M) <=> bQOOH[O](+M)                         1.000e+00 0.000     0.000
#      TCHEB/ 180.000   1500.000 /
#      PCHEB/ 0.010     98.692   /
#      CHEB/ 10 8/
#      CHEB/ -4.387e+00   -2.463e-01   -3.584e-01   -1.400e-02   1.553e-02   /
#      CHEB/ 5.188e-04    -1.916e-03   6.530e-05    7.393e+00    1.520e+00   /
#      CHEB/ -6.030e-02   -5.407e-02   -1.689e-02   5.497e-03    2.655e-03   /
#      CHEB/ -8.438e-04   2.004e-01    7.447e-01    -8.396e-03   1.736e-03   /
#      CHEB/ -9.541e-03   -5.666e-03   1.328e-03    1.213e-03    -4.902e-01  /