units(length='cm', time='s', quantity='mol', act_energy='kcal/mol')

ideal_gas(name='gas',
          elements="H D T C Ci O Oi N Ne Ar He Si S F Cl Br I X",
          species="""OH             bQOOH[O]       acetone
                     H2O            balkoxyketone  ibutenol
                     trisub_epoxy   bQOOHg         CH2O
                     galkene        O2             bR
                     bQOOHa         bRO2           disub_epoxy
                     HO2""",
          reactions='all',
          initial_state=state(temperature=300.0, pressure=OneAtm))

#-------------------------------------------------------------------------------
# Element data
#-------------------------------------------------------------------------------

element(symbol='Ci', atomic_mass=13.003)
element(symbol='D', atomic_mass=2.014)
element(symbol='Oi', atomic_mass=18.0)
element(symbol='T', atomic_mass=3.016)
element(symbol='X', atomic_mass=195.083)
#-------------------------------------------------------------------------------
# Species data
#-------------------------------------------------------------------------------

species(name='OH',
        atoms='H:1 O:1',
        thermo=(NASA([10.00, 984.14],
                     [ 3.49686242E+00,  1.83973160E-04, -9.97634499E-07,
                       1.56942783E-09, -6.10128175E-13,  3.41673934E+03,
                       1.48093120E+00]),
                NASA([984.14, 3000.00],
                     [ 3.45221464E+00, -2.95124034E-04,  7.39418622E-07,
                      -2.89309866E-10,  3.53041498E-14,  3.45751599E+03,
                       1.85813897E+00])))

species(name='bQOOH[O]',
        atoms='C:4 H:9 O:3',
        thermo=(NASA([10.00, 338.69],
                     [ 3.60915854E+00,  3.39069566E-02,  2.22227265E-04,
                      -8.23527342E-07,  8.56246333E-10, -2.41779899E+04,
                       1.23284605E+01]),
                NASA([338.69, 3000.00],
                     [ 5.03198881E+00,  5.46235886E-02, -3.56935806E-05,
                       1.12371751E-08, -1.35390171E-12, -2.44895726E+04,
                       3.82760723E+00])))

species(name='acetone',
        atoms='C:3 H:6 O:1',
        thermo=(NASA([10.00, 414.35],
                     [ 3.73496166E+00,  3.05743218E-02, -1.26253585E-04,
                       3.66080978E-07, -3.31430437E-10, -2.75250219E+04,
                       8.24936012E+00]),
                NASA([414.35, 3000.00],
                     [ 1.70010292E-01,  3.28431468E-02, -1.80960132E-05,
                       4.82960690E-09, -5.02388538E-13, -2.69536388E+04,
                       2.56372653E+01])))

species(name='H2O',
        atoms='H:2 O:1',
        thermo=(NASA([10.00, 773.84],
                     [ 4.00473541E+00, -2.39729134E-04,  8.11862955E-07,
                       1.47891862E-09, -1.19783539E-12, -3.03533807E+04,
                      -9.96254147E-02]),
                NASA([773.84, 3000.00],
                     [ 3.52133374E+00,  1.05377009E-03,  6.40722099E-07,
                      -3.86240235E-10,  5.49243294E-14, -3.02424794E+04,
                       2.34173094E+00])))

species(name='balkoxyketone',
        atoms='C:4 H:7 O:2',
        thermo=(NASA([10.00, 269.93],
                     [ 3.81931151E+00,  1.68519318E-02,  2.42742224E-04,
                      -9.64821161E-07,  1.18509335E-09, -2.04977785E+04,
                       1.20521854E+01]),
                NASA([269.93, 3000.00],
                     [ 3.57555944E+00,  4.28868089E-02, -2.65390705E-05,
                       7.99659117E-09, -9.32983470E-13, -2.05663066E+04,
                       1.13957990E+01])))

species(name='ibutenol',
        atoms='C:4 H:8 O:1',
        thermo=(NASA([10.00, 135.97],
                     [ 3.95714996E+00,  5.72646980E-03,  4.63611760E-04,
                      -3.04137514E-06,  6.85019471E-09, -2.39233231E+04,
                       8.21931848E+00]),
                NASA([135.97, 3000.00],
                     [ 3.32467612E+00,  3.69033556E-02, -1.89960416E-05,
                       4.73417677E-09, -4.59705291E-13, -2.39177444E+04,
                       9.58133237E+00])))

species(name='trisub_epoxy',
        atoms='C:4 H:8 O:2',
        thermo=(NASA([10.00, 209.19],
                     [ 3.75295042E+00,  2.37546930E-02,  1.26610110E-04,
                      -4.78364365E-07,  5.79468168E-10, -4.23475914E+04,
                       1.12739684E+01]),
                NASA([209.19, 3000.00],
                     [ 2.64185254E+00,  4.50006531E-02, -2.57361066E-05,
                       7.15266054E-09, -7.72980731E-13, -4.23011058E+04,
                       1.48960343E+01])))

species(name='bQOOHg',
        atoms='C:4 H:9 O:3',
        thermo=(NASA([10.00, 441.09],
                     [ 3.56595280E+00,  3.36073467E-02,  2.03462772E-04,
                      -5.98977617E-07,  4.83271168E-10, -2.41185203E+04,
                       1.33537891E+01]),
                NASA([441.09, 3000.00],
                     [ 6.09031192E+00,  5.80517622E-02, -4.06392697E-05,
                       1.32574026E-08, -1.62501077E-12, -2.48017058E+04,
                      -1.97849715E+00])))

species(name='CH2O',
        atoms='C:1 H:2 O:1',
        thermo=(NASA([10.00, 601.31],
                     [ 4.03190845E+00, -1.93233367E-03,  8.89743345E-06,
                       2.98105926E-09, -7.90813886E-12, -1.42276270E+04,
                       3.47574660E+00]),
                NASA([601.31, 3000.00],
                     [ 1.40134195E+00,  9.48858016E-03, -4.43088317E-06,
                       9.48452194E-10, -7.43790219E-14, -1.38013869E+04,
                       1.57423780E+01])))

species(name='galkene',
        atoms='C:4 H:8 O:1',
        thermo=(NASA([10.00, 383.47],
                     [ 3.84035604E+00,  1.20378740E-02,  1.87486319E-04,
                      -5.44759148E-07,  4.80711015E-10, -1.98826073E+04,
                       1.02570291E+01]),
                NASA([383.47, 3000.00],
                     [ 4.00413385E+00,  3.79025144E-02, -2.15435710E-05,
                       6.15213311E-09, -6.97446345E-13, -2.00978966E+04,
                       6.98052628E+00])))

species(name='O2',
        atoms='O:2',
        thermo=(NASA([10.00, 605.96],
                     [ 3.50743498E+00, -4.43860349E-04,  1.45938058E-06,
                       1.61509333E-09, -2.32050052E-12, -9.24756224E+02,
                       4.72183634E+00]),
                NASA([605.96, 3000.00],
                     [ 2.87462882E+00,  2.17840991E-03, -1.18262921E-06,
                       2.86910493E-10, -2.53297146E-14, -8.19517838E+02,
                       7.69331810E+00])))

species(name='bR',
        atoms='C:4 H:9 O:1',
        thermo=(NASA([10.00, 483.43],
                     [ 3.38164846E+00,  5.97142637E-02, -1.58320095E-04,
                       3.04908893E-07, -2.13091806E-10, -1.10452787E+04,
                       1.09226843E+01]),
                NASA([483.43, 3000.00],
                     [ 2.33428824E+00,  4.22094427E-02, -2.28029290E-05,
                       6.04614564E-09, -6.30240159E-13, -1.06381967E+04,
                       1.83772893E+01])))

species(name='bQOOHa',
        atoms='C:4 H:9 O:3',
        thermo=(NASA([10.00, 390.53],
                     [ 3.54969236E+00,  3.76592474E-02,  1.76622653E-04,
                      -5.98063750E-07,  5.45069236E-10, -2.74010445E+04,
                       1.31518761E+01]),
                NASA([390.53, 3000.00],
                     [ 5.33564209E+00,  5.64935715E-02, -3.83214298E-05,
                       1.22990604E-08, -1.49549987E-12, -2.78236544E+04,
                       2.59015836E+00])))

species(name='bRO2',
        atoms='C:4 H:9 O:3',
        thermo=(NASA([10.00, 461.39],
                     [ 3.53964713E+00,  3.88723795E-02,  9.57420148E-05,
                      -2.80380499E-07,  2.09647462E-10, -3.18750688E+04,
                       1.18803618E+01]),
                NASA([461.39, 3000.00],
                     [ 3.47201723E+00,  6.00510247E-02, -4.00567321E-05,
                       1.25663813E-08, -1.49496682E-12, -3.20880156E+04,
                       9.77903975E+00])))

species(name='disub_epoxy',
        atoms='C:4 H:8 O:2',
        thermo=(NASA([10.00, 549.41],
                     [ 3.89863211E+00,  5.97532637E-03,  1.66685676E-04,
                      -3.10743768E-07,  1.78330192E-10, -3.81048829E+04,
                       1.13847308E+01]),
                NASA([549.41, 3000.00],
                     [-6.40277648E-01,  6.05960003E-02, -4.13427220E-05,
                       1.31555461E-08, -1.57685017E-12, -3.79317660E+04,
                       2.76005436E+01])))

species(name='HO2',
        atoms='H:1 O:2',
        thermo=(NASA([10.00, 891.11],
                     [ 4.02887004E+00, -1.75769289E-03,  1.08726004E-05,
                      -1.13812972E-08,  3.90113097E-12,  4.95165001E+02,
                       4.69302008E+00]),
                NASA([891.11, 3000.00],
                     [ 3.06571044E+00,  4.28505005E-03, -2.19325920E-06,
                       5.58882699E-10, -5.61246669E-14,  5.98557610E+02,
                       8.84564156E+00])))

#-------------------------------------------------------------------------------
# Reaction data
#-------------------------------------------------------------------------------

# Reaction 1
chebyshev_reaction('bQOOHg (+ M) <=> bRO2 (+ M)',
                   Tmin=180.0, Tmax=1500.0,
                   Pmin=(0.01, 'atm'), Pmax=(98.692, 'atm'),
                   coeffs=[[-3.20000e-01,  1.09800e+00, -9.33600e-02, -4.72800e-03,  5.58700e-03, -1.76600e-04, -2.80100e-04,  7.72400e-05],
                           [ 1.19800e+00,  1.61700e+00, -5.45900e-02, -1.38400e-02,  4.75400e-03,  7.85700e-04, -2.03800e-04, -2.48600e-05],
                           [-2.45100e+00,  5.30600e-01,  1.24800e-01, -6.26600e-04, -7.40500e-03,  1.71700e-03,  4.35900e-04, -2.10800e-04],
                           [-1.95900e+00, -1.39900e-01,  1.23900e-01,  2.48100e-02, -7.13800e-03, -4.71900e-04,  4.29800e-04, -9.16300e-06],
                           [-1.19700e+00, -2.56400e-01,  1.89200e-02,  2.64100e-02,  3.60300e-03, -1.79300e-03, -4.34000e-04,  1.80500e-04],
                           [-5.80300e-01, -1.61600e-01, -4.03000e-02,  6.06800e-03,  7.77600e-03,  1.37400e-04, -7.23800e-04, -4.93500e-05],
                           [-2.89700e-01, -7.93700e-02, -3.30500e-02, -8.35100e-03,  1.98500e-03,  1.76200e-03,  9.40700e-05, -2.46000e-04],
                           [-1.10100e-01, -4.01800e-02, -8.31400e-03, -7.54600e-03, -3.73300e-03,  7.20300e-04,  7.48900e-04, -1.98900e-05],
                           [-2.62100e-02, -2.38200e-02,  2.74200e-03, -4.87600e-05, -3.84600e-03, -1.03300e-03,  4.46300e-04,  2.64200e-04],
                           [ 4.02700e-03, -1.88000e-02, -8.63800e-04,  4.72600e-03, -6.06000e-04, -1.33800e-03, -2.07600e-04,  2.11500e-04]])

# Reaction 2
chebyshev_reaction('bQOOHa (+ M) <=> bRO2 (+ M)',
                   Tmin=180.0, Tmax=1500.0,
                   Pmin=(0.01, 'atm'), Pmax=(98.692, 'atm'),
                   coeffs=[[ 1.03600e+00,  6.01500e-01,  3.17700e-02,  1.51700e-02,  9.12100e-04,  2.59800e-04, -1.66900e-04, -5.12300e-05],
                           [-1.75500e+00,  5.65900e-01,  1.41400e-01,  1.70800e-02,  3.08500e-03, -8.79000e-05, -9.04200e-05, -9.58300e-05],
                           [-2.67200e+00,  1.08700e-01,  4.46400e-02,  1.83000e-02,  3.52200e-03,  3.76000e-04, -1.41300e-04, -7.17600e-05],
                           [-1.38600e+00, -8.03800e-02, -9.81200e-03,  3.25300e-03,  2.57800e-03,  6.23000e-04,  3.28900e-05, -3.35800e-05],
                           [-7.70700e-01, -7.93600e-02, -2.07400e-02, -1.28600e-03,  4.73500e-04,  2.69900e-04,  6.37000e-05,  1.87000e-05],
                           [-3.79800e-01, -7.26800e-02, -8.06500e-03, -4.18100e-04,  4.91400e-04,  1.55500e-05,  2.52300e-05,  2.29000e-05],
                           [-2.37100e-01, -5.09800e-02, -1.22400e-02,  1.04100e-03,  7.94500e-04,  2.49900e-04,  6.51900e-05,  2.52000e-05],
                           [-1.00900e-01, -5.19400e-02, -1.38400e-02, -1.68500e-03,  4.66000e-04,  3.49600e-04,  1.68400e-04,  4.57600e-05],
                           [-4.11500e-02, -3.64100e-02, -1.69700e-02, -4.02100e-03, -3.69000e-04,  2.82200e-04,  1.93100e-04,  5.62600e-05],
                           [-5.71700e-04, -1.55500e-02, -1.51900e-02, -5.44100e-03, -9.13600e-04,  1.81900e-04,  1.72900e-04,  4.45100e-05]])

# Reaction 3
chebyshev_reaction('bQOOH[O] (+ M) <=> bRO2 (+ M)',
                   Tmin=180.0, Tmax=1500.0,
                   Pmin=(0.01, 'atm'), Pmax=(98.692, 'atm'),
                   coeffs=[[ 5.07800e+00,  1.07600e+00, -1.13100e-01,  7.07800e-03,  3.56800e-03, -3.94800e-04, -3.11300e-05,  7.14500e-05],
                           [-2.78900e+00,  1.12100e+00,  4.56900e-02, -1.74400e-02,  5.58800e-04,  2.08200e-03,  7.22200e-07, -1.58800e-04],
                           [-3.19300e+00,  1.11900e-01,  9.34200e-02,  1.97200e-02, -3.92300e-03, -1.04900e-03,  5.16500e-04,  1.21700e-04],
                           [-1.86200e+00, -1.76400e-01, -1.20800e-02,  2.34900e-02,  6.67200e-03, -1.57400e-03, -7.31700e-04,  1.75700e-04],
                           [-9.63300e-01, -1.22700e-01, -4.68000e-02, -1.50600e-03,  6.34500e-03,  1.56700e-03, -5.31500e-04, -2.47300e-04],
                           [-4.86200e-01, -4.00600e-02, -1.67300e-02, -8.58300e-03, -1.33800e-03,  1.04100e-03,  5.20400e-04, -5.34100e-05],
                           [-2.51800e-01, -2.40800e-02,  1.09300e-02,  1.72800e-03, -2.95600e-03, -1.40800e-03,  2.08000e-04,  2.99500e-04],
                           [-1.38100e-01, -4.54100e-02,  8.28800e-03,  9.14600e-03,  1.10900e-03, -1.50200e-03, -6.47600e-04,  1.12900e-04],
                           [-6.57100e-02, -5.95000e-02, -9.53400e-03,  5.49500e-03,  3.60500e-03,  3.49900e-04, -5.53700e-04, -2.26200e-04],
                           [-1.71700e-02, -4.64000e-02, -2.18000e-02, -2.67100e-03,  2.02300e-03,  1.39200e-03,  1.90800e-04, -1.72700e-04]])

# Reaction 4
chebyshev_reaction('O2 + bR (+ M) <=> bRO2 (+ M)',
                   Tmin=180.0, Tmax=1500.0,
                   Pmin=(0.01, 'atm'), Pmax=(98.692, 'atm'),
                   coeffs=[[ 1.18400e+01,  6.06800e-01, -1.00500e-01,  2.12100e-02, -4.99000e-03,  1.16700e-03, -2.04100e-04,  2.39800e-05],
                           [-1.86800e+00,  1.00100e+00, -1.12400e-01,  1.00200e-02,  9.26100e-04, -9.41100e-04,  4.21500e-04, -1.07200e-04],
                           [-1.40300e+00,  6.35000e-01, -6.50900e-03, -1.17400e-02,  4.07000e-03, -9.45500e-04,  1.39400e-04,  1.06900e-05],
                           [-1.04300e+00,  2.98900e-01,  5.24700e-02, -1.25800e-02,  1.65000e-03, -9.34300e-05, -9.92700e-05,  3.69500e-05],
                           [-7.16500e-01,  7.62000e-02,  5.86400e-02, -2.86500e-03, -8.10600e-04,  8.52900e-05, -7.11300e-05,  1.18400e-05],
                           [-4.58300e-01, -4.07500e-02,  3.96000e-02,  4.33600e-03, -8.62600e-04, -2.38900e-04, -1.24900e-05,  1.23900e-05],
                           [-2.67500e-01, -8.53200e-02,  1.67200e-02,  6.07800e-03, -5.14200e-06, -3.14000e-04, -4.34100e-05,  2.25900e-05],
                           [-1.33400e-01, -8.87900e-02, -3.15600e-04,  4.22600e-03,  5.35700e-04, -1.27200e-04, -5.01300e-05,  9.83000e-06],
                           [-4.59400e-02, -7.03500e-02, -1.08300e-02,  1.61200e-03,  4.58700e-04,  9.99900e-05, -1.67000e-06, -6.95300e-06],
                           [ 4.70100e-03, -4.31800e-02, -1.55900e-02, -7.61900e-04,  2.37500e-04,  1.96500e-04,  5.95800e-05, -1.01000e-05]])
#  bRO2(+M) <=> bQOOHg(+M)                             1.000e+00 0.000     0.000
#      TCHEB/ 180.000   1500.000 /
#      PCHEB/ 0.010     98.692   /
#      CHEB/ 10 8/
#      CHEB/ -9.848e+00   1.098e+00    -9.336e-02   -4.728e-03   5.587e-03   /
#      CHEB/ -1.766e-04   -2.801e-04   7.724e-05    9.825e+00    1.617e+00   /
#      CHEB/ -5.459e-02   -1.384e-02   4.754e-03    7.857e-04    -2.038e-04  /
#      CHEB/ -2.486e-05   -2.305e+00   5.306e-01    1.248e-01    -6.266e-04  /
#      CHEB/ -7.405e-03   1.717e-03    4.359e-04    -2.108e-04   -1.922e+00  /
#      CHEB/ -1.399e-01   1.239e-01    2.481e-02    -7.138e-03   -4.719e-04  /
#      CHEB/ 4.298e-04    -9.163e-06   -1.191e+00   -2.564e-01   1.892e-02   /
#      CHEB/ 2.641e-02    3.603e-03    -1.793e-03   -4.340e-04   1.805e-04   /
#      CHEB/ -5.804e-01   -1.616e-01   -4.030e-02   6.068e-03    7.776e-03   /
#      CHEB/ 1.374e-04    -7.238e-04   -4.935e-05   -2.902e-01   -7.937e-02  /
#      CHEB/ -3.305e-02   -8.351e-03   1.985e-03    1.762e-03    9.407e-05   /
#      CHEB/ -2.460e-04   -1.105e-01   -4.018e-02   -8.314e-03   -7.546e-03  /
#      CHEB/ -3.733e-03   7.203e-04    7.489e-04    -1.989e-05   -2.653e-02  /
#      CHEB/ -2.382e-02   2.742e-03    -4.876e-05   -3.846e-03   -1.033e-03  /
#      CHEB/ 4.463e-04    2.642e-04    3.840e-03    -1.880e-02   -8.638e-04  /
#      CHEB/ 4.726e-03    -6.060e-04   -1.338e-03   -2.076e-04   2.115e-04   /

# Reaction 5
chebyshev_reaction('bQOOHa (+ M) <=> bQOOHg (+ M)',
                   Tmin=180.0, Tmax=1500.0,
                   Pmin=(0.01, 'atm'), Pmax=(98.692, 'atm'),
                   coeffs=[[-1.27000e+01,  4.86100e-01,  9.20800e-02,  2.13500e-02,  6.66900e-04, -3.66800e-03, -1.56600e-03,  7.31200e-05],
                           [ 4.86300e+00,  1.64000e+00, -1.04100e-02,  3.11700e-03,  1.64400e-02,  5.54600e-03,  1.21100e-03, -1.87700e-04],
                           [-2.43800e+00,  4.34000e-01,  8.49600e-02, -1.17500e-02, -1.20600e-02,  7.20100e-05, -2.95900e-05, -1.43200e-04],
                           [-1.89700e+00, -1.38800e-01,  1.13100e-01,  1.64400e-02, -1.11700e-02, -1.83000e-03,  2.90000e-04,  1.46800e-04],
                           [-1.11100e+00, -1.98700e-01,  3.82000e-02,  3.23000e-02,  4.91800e-03, -1.65100e-03, -6.84600e-04, -8.72800e-05],
                           [-5.26000e-01, -1.25300e-01, -2.65400e-02,  8.85100e-03,  8.40900e-03,  2.38300e-04, -6.04100e-04,  5.19400e-05],
                           [-2.64000e-01, -5.80900e-02, -3.04800e-02, -6.56100e-03,  2.47500e-03,  1.88600e-03,  1.03400e-04, -2.38100e-04],
                           [-1.03300e-01, -4.28900e-02, -8.65200e-03, -8.30900e-03, -3.73400e-03,  8.26300e-04,  8.11700e-04, -1.84300e-07],
                           [-2.67300e-02, -2.33000e-02, -6.47100e-04, -1.33100e-03, -4.18200e-03, -1.05600e-03,  4.79600e-04,  2.82300e-04],
                           [ 2.90100e-03, -1.91700e-02, -1.58000e-03,  4.15200e-03, -8.71500e-04, -1.49200e-03, -2.90500e-04,  1.76800e-04]])

# Reaction 6
chebyshev_reaction('bQOOH[O] (+ M) <=> bQOOHg (+ M)',
                   Tmin=180.0, Tmax=1500.0,
                   Pmin=(0.01, 'atm'), Pmax=(98.692, 'atm'),
                   coeffs=[[-5.82700e+00,  1.07500e+00, -3.62200e-01, -4.71000e-02,  1.76600e-02,  5.59200e-03, -8.13300e-04, -1.00100e-03],
                           [ 1.45500e+00,  2.24300e+00,  2.37600e-01, -5.68900e-02, -2.26200e-02,  3.95000e-03,  3.30500e-03,  2.66100e-04],
                           [-3.06700e+00, -5.13100e-02,  1.95500e-01,  1.05700e-01, -9.55400e-03, -1.40000e-02, -3.25600e-04,  2.11600e-03],
                           [-2.14900e+00, -4.78500e-01,  7.29500e-04,  4.71900e-02,  2.16100e-02,  1.00400e-03, -4.52600e-03, -9.35500e-04],
                           [-1.06600e+00, -2.56600e-01, -8.55200e-02, -1.51600e-02,  1.32200e-02,  8.73100e-03, -7.86200e-05, -1.78400e-03],
                           [-4.47500e-01, -6.67400e-02, -4.76700e-02, -2.64500e-02, -4.64500e-03,  3.56400e-03,  2.71000e-03,  1.00900e-04],
                           [-1.83500e-01,  2.21500e-02,  5.28100e-03, -9.67500e-03, -9.93700e-03, -2.72000e-03,  1.57800e-03,  1.06600e-03],
                           [-7.90900e-02,  7.91700e-03,  3.01600e-02,  6.31100e-03, -5.15600e-03, -3.56400e-03, -6.45800e-04,  5.45400e-04],
                           [-3.77000e-02, -2.92300e-02,  1.51800e-02,  1.32500e-02,  1.18900e-03, -1.78700e-03, -1.21200e-03, -1.54900e-04],
                           [-1.76100e-02, -4.50700e-02, -8.83300e-03,  8.74100e-03,  4.05500e-03,  1.38900e-04, -5.32600e-04, -3.44100e-04]])

# Reaction 7
chebyshev_reaction('O2 + bR (+ M) <=> bQOOHg (+ M)',
                   Tmin=180.0, Tmax=1500.0,
                   Pmin=(0.01, 'atm'), Pmax=(98.692, 'atm'),
                   coeffs=[[ 5.13000e+00,  1.33400e+00, -6.53300e-01, -2.96000e-02,  6.23300e-02, -5.09700e-03, -1.01800e-02,  3.50700e-03],
                           [-1.62800e+00,  1.45500e+00,  3.96600e-01, -6.59200e-02, -7.35700e-02,  2.14600e-02,  1.20000e-02, -7.07300e-03],
                           [-1.54200e+00,  3.22600e-01,  2.17900e-01,  5.58700e-02, -1.54400e-02, -1.67000e-02,  3.74600e-03,  3.62500e-03],
                           [-1.11800e+00, -1.26800e-01,  5.60200e-02,  4.58000e-02,  1.91600e-02, -8.54400e-03, -4.74700e-03,  1.65300e-03],
                           [-6.41300e-01, -1.69800e-01, -2.44700e-02,  3.82000e-03,  1.91500e-02,  3.84200e-03, -3.55800e-03, -1.25300e-03],
                           [-3.07800e-01, -8.59700e-02, -3.20000e-02, -2.10700e-02,  5.39900e-03,  6.48000e-03,  3.41100e-04, -1.31400e-03],
                           [-1.16800e-01, -9.17200e-03, -5.15700e-03, -2.33100e-02, -5.88700e-03,  3.33300e-03,  1.99600e-03, -1.89700e-04],
                           [-3.69500e-02,  1.74300e-02,  2.09700e-02, -1.14300e-02, -9.64800e-03, -5.17100e-04,  1.56200e-03,  5.39500e-04],
                           [-7.04500e-03,  4.12200e-03,  2.75200e-02,  3.43200e-03, -7.12000e-03, -2.64400e-03,  4.73600e-04,  6.20000e-04],
                           [-3.34900e-03, -1.77000e-02,  1.54400e-02,  1.11100e-02, -1.49200e-03, -2.38100e-03, -4.75700e-04,  2.92100e-04]])
#  bRO2(+M) <=> bQOOHa(+M)                             1.000e+00 0.000     0.000
#      TCHEB/ 180.000   1500.000 /
#      PCHEB/ 0.010     98.692   /
#      CHEB/ 10 8/
#      CHEB/ -4.161e+00   6.015e-01    3.177e-02    1.517e-02    9.121e-04   /
#      CHEB/ 2.598e-04    -1.669e-04   -5.123e-05   3.240e+00    5.659e-01   /
#      CHEB/ 1.414e-01    1.708e-02    3.085e-03    -8.790e-05   -9.042e-05  /
#      CHEB/ -9.583e-05   -2.617e+00   1.087e-01    4.464e-02    1.830e-02   /
#      CHEB/ 3.522e-03    3.760e-04    -1.413e-04   -7.176e-05   -1.385e+00  /
#      CHEB/ -8.038e-02   -9.812e-03   3.253e-03    2.578e-03    6.230e-04   /
#      CHEB/ 3.289e-05    -3.358e-05   -7.755e-01   -7.936e-02   -2.074e-02  /
#      CHEB/ -1.286e-03   4.735e-04    2.699e-04    6.370e-05    1.870e-05   /
#      CHEB/ -3.825e-01   -7.268e-02   -8.065e-03   -4.181e-04   4.914e-04   /
#      CHEB/ 1.555e-05    2.523e-05    2.290e-05    -2.385e-01   -5.098e-02  /
#      CHEB/ -1.224e-02   1.041e-03    7.945e-04    2.499e-04    6.519e-05   /
#      CHEB/ 2.520e-05    -1.016e-01   -5.194e-02   -1.384e-02   -1.685e-03  /
#      CHEB/ 4.660e-04    3.496e-04    1.684e-04    4.576e-05    -4.150e-02  /
#      CHEB/ -3.641e-02   -1.697e-02   -4.021e-03   -3.690e-04   2.822e-04   /
#      CHEB/ 1.931e-04    5.626e-05    -6.910e-04   -1.555e-02   -1.519e-02  /
#      CHEB/ -5.441e-03   -9.136e-04   1.819e-04    1.729e-04    4.451e-05   /
#  bQOOHg(+M) <=> bQOOHa(+M)                           1.000e+00 0.000     0.000
#      TCHEB/ 180.000   1500.000 /
#      PCHEB/ 0.010     98.692   /
#      CHEB/ 10 8/
#      CHEB/ -8.369e+00   4.861e-01    9.208e-02    2.135e-02    6.669e-04   /
#      CHEB/ -3.668e-03   -1.566e-03   7.312e-05    1.230e+00    1.640e+00   /
#      CHEB/ -1.041e-02   3.117e-03    1.644e-02    5.546e-03    1.211e-03   /
#      CHEB/ -1.877e-04   -2.529e+00   4.340e-01    8.496e-02    -1.175e-02  /
#      CHEB/ -1.206e-02   7.201e-05    -2.959e-05   -1.432e-04   -1.933e+00  /
#      CHEB/ -1.388e-01   1.131e-01    1.644e-02    -1.117e-02   -1.830e-03  /
#      CHEB/ 2.900e-04    1.468e-04    -1.121e+00   -1.987e-01   3.820e-02   /
#      CHEB/ 3.230e-02    4.918e-03    -1.651e-03   -6.846e-04   -8.728e-05  /
#      CHEB/ -5.286e-01   -1.253e-01   -2.654e-02   8.851e-03    8.409e-03   /
#      CHEB/ 2.383e-04    -6.041e-04   5.194e-05    -2.648e-01   -5.809e-02  /
#      CHEB/ -3.048e-02   -6.561e-03   2.475e-03    1.886e-03    1.034e-04   /
#      CHEB/ -2.381e-04   -1.036e-01   -4.289e-02   -8.652e-03   -8.309e-03  /
#      CHEB/ -3.734e-03   8.263e-04    8.117e-04    -1.843e-07   -2.676e-02  /
#      CHEB/ -2.330e-02   -6.471e-04   -1.331e-03   -4.182e-03   -1.056e-03  /
#      CHEB/ 4.796e-04    2.823e-04    2.968e-03    -1.917e-02   -1.580e-03  /
#      CHEB/ 4.152e-03    -8.715e-04   -1.492e-03   -2.905e-04   1.768e-04   /

# Reaction 8
chebyshev_reaction('bQOOH[O] (+ M) <=> bQOOHa (+ M)',
                   Tmin=180.0, Tmax=1500.0,
                   Pmin=(0.01, 'atm'), Pmax=(98.692, 'atm'),
                   coeffs=[[-3.02000e+00,  3.79200e-01,  1.70900e-02,  8.57900e-03, -6.58800e-03, -2.36900e-03,  2.41700e-04,  3.85000e-04],
                           [-2.69800e+00,  1.24600e+00,  1.52000e-01,  2.31900e-02,  1.36900e-02,  2.38900e-03, -1.24600e-03, -6.63600e-04],
                           [-3.27300e+00,  1.32200e-02,  5.72200e-02,  1.60600e-02, -1.59000e-03,  1.16200e-03,  1.10400e-03,  2.82600e-05],
                           [-1.84100e+00, -1.85500e-01, -3.01400e-02,  1.15900e-02,  1.87600e-03, -2.51300e-03, -4.13100e-04,  4.74600e-04],
                           [-8.92800e-01, -7.48100e-02, -3.61700e-02, -2.00000e-03,  3.96800e-03,  2.57500e-04, -9.35900e-04, -2.50400e-04],
                           [-4.31800e-01,  8.85900e-04,  1.17900e-04, -4.32800e-03, -4.25400e-04,  8.27200e-04,  2.40700e-04, -1.88800e-04],
                           [-2.25600e-01, -4.67300e-04,  1.54500e-02,  5.00500e-03, -1.56500e-03, -9.16800e-04,  2.68900e-04,  2.55400e-04],
                           [-1.30800e-01, -4.68000e-02,  8.69100e-03,  8.78100e-03,  1.40700e-03, -1.15200e-03, -4.49300e-04,  1.63900e-04],
                           [-6.70000e-02, -6.02700e-02, -1.36900e-02,  3.94300e-03,  3.22100e-03,  3.23600e-04, -4.98000e-04, -1.67400e-04],
                           [-1.85500e-02, -4.75600e-02, -2.34300e-02, -3.98000e-03,  1.41600e-03,  1.20900e-03,  1.76700e-04, -1.63600e-04]])

# Reaction 9
chebyshev_reaction('O2 + bR (+ M) <=> bQOOHa (+ M)',
                   Tmin=180.0, Tmax=1500.0,
                   Pmin=(0.01, 'atm'), Pmax=(98.692, 'atm'),
                   coeffs=[[ 3.80600e+00,  1.96000e-02,  1.05000e-01,  6.14200e-02, -1.59200e-03,  1.51200e-03, -3.53200e-04, -1.24000e-05],
                           [-1.85500e+00,  9.89800e-01, -9.64700e-02,  7.11200e-03,  9.18900e-04, -1.56100e-03,  2.83100e-04, -1.57900e-04],
                           [-1.47700e+00,  5.44700e-01, -4.10200e-02, -1.89600e-02,  1.86300e-03, -1.38400e-03,  3.29200e-05,  7.74100e-06],
                           [-1.01200e+00,  3.09300e-01,  4.89100e-02, -1.62100e-02,  3.77700e-05, -6.32200e-04, -1.99500e-04,  4.26500e-05],
                           [-6.45100e-01,  1.26400e-01,  7.20900e-02, -6.98500e-04, -1.29700e-03, -2.58800e-04, -1.85100e-04, -3.60400e-06],
                           [-4.05900e-01, -3.15300e-03,  5.43300e-02,  7.63900e-03, -9.60900e-05, -2.35000e-04, -5.59500e-05, -7.03300e-06],
                           [-2.42400e-01, -6.35200e-02,  1.97400e-02,  8.19300e-03,  6.89200e-04, -8.53200e-05,  1.71000e-06,  2.90800e-05],
                           [-1.26800e-01, -9.13900e-02, -5.72000e-04,  3.52000e-03,  5.69500e-04, -2.01200e-06,  2.21200e-05,  3.34300e-05],
                           [-4.64600e-02, -6.97800e-02, -1.42100e-02,  3.12000e-04,  8.51900e-05,  4.07700e-05,  1.22400e-05,  9.94100e-06],
                           [ 3.18500e-03, -4.43700e-02, -1.69100e-02, -1.66100e-03, -1.27700e-04,  6.70000e-05,  3.06600e-05, -1.23700e-05]])
#  bRO2(+M) <=> bQOOH[O](+M)                           1.000e+00 0.000     0.000
#      TCHEB/ 180.000   1500.000 /
#      PCHEB/ 0.010     98.692   /
#      CHEB/ 10 8/
#      CHEB/ -4.883e+00   1.076e+00    -1.131e-01   7.078e-03    3.568e-03   /
#      CHEB/ -3.948e-04   -3.113e-05   7.145e-05    5.505e+00    1.121e+00   /
#      CHEB/ 4.569e-02    -1.744e-02   5.588e-04    2.082e-03    7.222e-07   /
#      CHEB/ -1.588e-04   -3.199e+00   1.119e-01    9.342e-02    1.972e-02   /
#      CHEB/ -3.923e-03   -1.049e-03   5.165e-04    1.217e-04    -1.883e+00  /
#      CHEB/ -1.764e-01   -1.208e-02   2.349e-02    6.672e-03    -1.574e-03  /
#      CHEB/ -7.317e-04   1.757e-04    -9.741e-01   -1.227e-01   -4.680e-02  /
#      CHEB/ -1.506e-03   6.345e-03    1.567e-03    -5.315e-04   -2.473e-04  /
#      CHEB/ -4.902e-01   -4.006e-02   -1.673e-02   -8.583e-03   -1.338e-03  /
#      CHEB/ 1.041e-03    5.204e-04    -5.341e-05   -2.533e-01   -2.408e-02  /
#      CHEB/ 1.093e-02    1.728e-03    -2.956e-03   -1.408e-03   2.080e-04   /
#      CHEB/ 2.995e-04    -1.387e-01   -4.541e-02   8.288e-03    9.146e-03   /
#      CHEB/ 1.109e-03    -1.502e-03   -6.476e-04   1.129e-04    -6.589e-02  /
#      CHEB/ -5.950e-02   -9.534e-03   5.495e-03    3.605e-03    3.499e-04   /
#      CHEB/ -5.537e-04   -2.262e-04   -1.717e-02   -4.640e-02   -2.180e-02  /
#      CHEB/ -2.671e-03   2.023e-03    1.392e-03    1.908e-04    -1.727e-04  /
#  bQOOHg(+M) <=> bQOOH[O](+M)                         1.000e+00 0.000     0.000
#      TCHEB/ 180.000   1500.000 /
#      PCHEB/ 0.010     98.692   /
#      CHEB/ 10 8/
#      CHEB/ -6.261e+00   1.075e+00    -3.622e-01   -4.710e-02   1.766e-02   /
#      CHEB/ 5.592e-03    -8.133e-04   -1.001e-03   1.121e+00    2.243e+00   /
#      CHEB/ 2.376e-01    -5.689e-02   -2.262e-02   3.950e-03    3.305e-03   /
#      CHEB/ 2.661e-04    -3.219e+00   -5.131e-02   1.955e-01    1.057e-01   /
#      CHEB/ -9.554e-03   -1.400e-02   -3.256e-04   2.116e-03    -2.207e+00  /