units(length='cm', time='s', quantity='mol', act_energy='kcal/mol')

ideal_gas(name='gas',
          elements="H D T C Ci O Oi N Ne Ar He Si S F Cl Br I X",
          species="""aOOHbalkene      OH               ibutanal
                     aR               performic_acid   disub_c4ether
                     aQOOHb           H                aadduct
                     trisub_epoxy     ibutenol         aQOOH[O]
                     ipropyl          aRO2             O2
                     formic_acid      propene          aQOOHg
                     ibut_peroxyacid  HO2              CH3""",
          reactions='all',
          initial_state=state(temperature=300.0, pressure=OneAtm))

#-------------------------------------------------------------------------------
# Element data
#-------------------------------------------------------------------------------

element(symbol='Ci', atomic_mass=13.003)
element(symbol='D', atomic_mass=2.014)
element(symbol='Oi', atomic_mass=18.0)
element(symbol='T', atomic_mass=3.016)
element(symbol='X', atomic_mass=195.083)
#-------------------------------------------------------------------------------
# Species data
#-------------------------------------------------------------------------------

species(name='aOOHbalkene',
        atoms='C:3 H:6 O:3',
        thermo=(NASA([10.00, 497.41],
                     [ 3.76691735E+00,  1.51417956E-02,  1.85499431E-04,
                      -4.61303214E-07,  3.27678941E-10, -3.09328672E+04,
                       1.09903968E+01]),
                NASA([497.41, 3000.00],
                     [ 6.20882781E+00,  4.08866173E-02, -2.89934946E-05,
                       9.60428979E-09, -1.19355432E-12, -3.17371966E+04,
                      -4.72842811E+00])))

species(name='OH',
        atoms='H:1 O:1',
        thermo=(NASA([10.00, 984.14],
                     [ 3.49686242E+00,  1.83973160E-04, -9.97634499E-07,
                       1.56942783E-09, -6.10128175E-13,  3.41673934E+03,
                       1.48093120E+00]),
                NASA([984.14, 3000.00],
                     [ 3.45221464E+00, -2.95124034E-04,  7.39418622E-07,
                      -2.89309866E-10,  3.53041498E-14,  3.45751599E+03,
                       1.85813897E+00])))

species(name='ibutanal',
        atoms='C:4 H:8 O:1',
        thermo=(NASA([10.00, 683.88],
                     [ 3.57157346E+00,  3.36936906E-02, -1.78475021E-05,
                       1.31946716E-08, -7.58008388E-12, -2.61525585E+04,
                       1.05595084E+01]),
                NASA([683.88, 3000.00],
                     [ 1.29043622E+00,  4.14804229E-02, -2.27411206E-05,
                       6.08619500E-09, -6.38995128E-13, -2.57106393E+04,
                       2.16477430E+01])))

species(name='aR',
        atoms='C:4 H:9 O:1',
        thermo=(NASA([10.00, 455.22],
                     [ 3.59625500E+00,  3.38947981E-02,  7.37257079E-06,
                      -3.99275335E-08,  2.49019944E-11, -1.24486419E+04,
                       1.18269265E+01]),
                NASA([455.22, 3000.00],
                     [ 2.49586309E+00,  4.35639890E-02, -2.44887770E-05,
                       6.73363769E-09, -7.23862433E-13, -1.23484587E+04,
                       1.62696907E+01])))

species(name='performic_acid',
        atoms='C:1 H:2 O:3',
        thermo=(NASA([10.00, 590.95],
                     [ 3.92633851E+00,  4.24517168E-03,  6.71106764E-05,
                      -1.36545385E-07,  8.03337864E-11, -3.63028176E+04,
                       8.06485813E+00]),
                NASA([590.95, 3000.00],
                     [ 4.39992934E+00,  1.85411415E-02, -1.36005501E-05,
                       4.62292431E-09, -5.88463603E-13, -3.66643888E+04,
                       3.44353230E+00])))

species(name='disub_c4ether',
        atoms='C:4 H:8 O:2',
        thermo=(NASA([10.00, 413.50],
                     [ 3.78241323E+00,  1.89501763E-02,  8.65302396E-05,
                      -1.80580575E-07,  1.13656264E-10, -3.78521371E+04,
                       1.09982450E+01]),
                NASA([413.50, 3000.00],
                     [ 4.29420885E-01,  5.13851903E-02, -3.11292293E-05,
                       9.11498284E-09, -1.03192718E-12, -3.75748428E+04,
                       2.42134976E+01])))

species(name='aQOOHb',
        atoms='C:4 H:9 O:3',
        thermo=(NASA([10.00, 412.78],
                     [ 3.15498836E+00,  8.55068303E-02, -2.35307993E-04,
                       4.71983261E-07, -3.62709267E-10, -2.77554896E+04,
                       1.52522123E+01]),
                NASA([412.78, 3000.00],
                     [ 4.18099845E+00,  5.26168288E-02, -3.23998410E-05,
                       9.59389339E-09, -1.09464519E-12, -2.76446946E+04,
                       1.35782328E+01])))

species(name='H',
        atoms='H:1',
        thermo=(NASA([10.00, 794.01],
                     [ 2.50000000E+00,  1.99051163E-15, -1.19089508E-17,
                       2.10805655E-20, -1.11017699E-23,  2.54725594E+04,
                      -4.61279342E-01]),
                NASA([794.01, 3000.00],
                     [ 2.50000000E+00,  1.52667235E-14, -1.58445285E-17,
                       6.63088600E-21, -9.62111674E-25,  2.54725594E+04,
                      -4.61279342E-01])))

species(name='aadduct',
        atoms='C:4 H:9 O:3',
        thermo=(NASA([10.00, 449.84],
                     [ 3.06901904E+00,  9.20724491E-02, -2.68085092E-04,
                       5.15249897E-07, -3.68046586E-10, -3.14037180E+04,
                       1.46591735E+01]),
                NASA([449.84, 3000.00],
                     [ 4.11210745E+00,  5.16955724E-02, -2.97401041E-05,
                       8.32758939E-09, -9.08861448E-13, -3.11828770E+04,
                       1.39578825E+01])))

species(name='trisub_epoxy',
        atoms='C:4 H:8 O:2',
        thermo=(NASA([10.00, 209.19],
                     [ 3.75295042E+00,  2.37546930E-02,  1.26610110E-04,
                      -4.78364365E-07,  5.79468168E-10, -3.85382566E+04,
                       1.12739684E+01]),
                NASA([209.19, 3000.00],
                     [ 2.64185254E+00,  4.50006531E-02, -2.57361066E-05,
                       7.15266054E-09, -7.72980731E-13, -3.84917710E+04,
                       1.48960343E+01])))

species(name='ibutenol',
        atoms='C:4 H:8 O:1',
        thermo=(NASA([10.00, 135.97],
                     [ 3.95714996E+00,  5.72646980E-03,  4.63611760E-04,
                      -3.04137514E-06,  6.85019471E-09, -2.29795216E+04,
                       8.21931848E+00]),
                NASA([135.97, 3000.00],
                     [ 3.32467612E+00,  3.69033556E-02, -1.89960416E-05,
                       4.73417677E-09, -4.59705291E-13, -2.29739430E+04,
                       9.58133237E+00])))

species(name='aQOOH[O]',
        atoms='C:4 H:9 O:3',
        thermo=(NASA([10.00, 488.36],
                     [ 3.54559533E+00,  3.89536133E-02,  8.47689703E-05,
                      -2.45147486E-07,  1.76157259E-10, -2.60367103E+04,
                       1.34685910E+01]),
                NASA([488.36, 3000.00],
                     [ 3.94214913E+00,  5.71928314E-02, -3.72516212E-05,
                       1.15209013E-08, -1.35808341E-12, -2.63316712E+04,
                       9.21628964E+00])))

species(name='ipropyl',
        atoms='C:3 H:7',
        thermo=(NASA([10.00, 421.76],
                     [ 3.73943775E+00,  3.10070157E-02, -1.51196908E-04,
                       4.35367329E-07, -3.85565052E-10,  9.49213457E+03,
                       7.79448918E+00]),
                NASA([421.76, 3000.00],
                     [-4.74526725E-01,  3.20862468E-02, -1.67340747E-05,
                       4.21365136E-09, -4.13155573E-13,  1.01934458E+04,
                       2.85865912E+01])))

species(name='aRO2',
        atoms='C:4 H:9 O:3',
        thermo=(NASA([10.00, 670.36],
                     [ 3.45405325E+00,  4.74751311E-02,  9.77507759E-06,
                      -6.31019603E-08,  3.75500067E-11, -3.36904519E+04,
                       1.39284976E+01]),
                NASA([670.36, 3000.00],
                     [ 5.04137652E+00,  5.19952978E-02, -3.16472789E-05,
                       9.22798587E-09, -1.03598915E-12, -3.42176444E+04,
                       4.56056770E+00])))

species(name='O2',
        atoms='O:2',
        thermo=(NASA([10.00, 605.96],
                     [ 3.50743498E+00, -4.43860349E-04,  1.45938058E-06,
                       1.61509333E-09, -2.32050052E-12, -9.24756224E+02,
                       4.72183634E+00]),
                NASA([605.96, 3000.00],
                     [ 2.87462882E+00,  2.17840991E-03, -1.18262921E-06,
                       2.86910493E-10, -2.53297146E-14, -8.19517838E+02,
                       7.69331810E+00])))

species(name='formic_acid',
        atoms='C:1 H:2 O:2',
        thermo=(NASA([10.00, 741.38],
                     [ 4.06855785E+00, -4.74562133E-03,  4.71797900E-05,
                      -6.07490052E-08,  2.51286794E-11, -4.66880837E+04,
                       6.53681035E+00]),
                NASA([741.38, 3000.00],
                     [ 1.13645847E+00,  1.74953124E-02, -1.08112403E-05,
                       3.08075326E-09, -3.34892658E-13, -4.64297918E+04,
                       1.86149484E+01])))

species(name='propene',
        atoms='C:3 H:6',
        thermo=(NASA([10.00, 519.53],
                     [ 3.98723879E+00,  4.72040503E-04,  6.51776229E-05,
                      -9.89891002E-08,  4.91141123E-11, -8.70306730E+02,
                       6.98071210E+00]),
                NASA([519.53, 3000.00],
                     [ 3.79893331E-01,  2.82457690E-02, -1.50108430E-05,
                       3.90894069E-09, -4.00521928E-13, -4.95479383E+02,
                       2.20218922E+01])))

species(name='aQOOHg',
        atoms='C:4 H:9 O:3',
        thermo=(NASA([10.00, 455.48],
                     [ 3.62522127E+00,  2.83222320E-02,  2.08527447E-04,
                      -5.67427418E-07,  4.35169138E-10, -2.87188902E+04,
                       1.26617758E+01]),
                NASA([455.48, 3000.00],
                     [ 5.13914202E+00,  5.96270859E-02, -4.14435328E-05,
                       1.34202375E-08, -1.63474553E-12, -2.93194466E+04,
                       1.46991116E+00])))

species(name='ibut_peroxyacid',
        atoms='C:4 H:8 O:3',
        thermo=(NASA([10.00, 1386.21],
                     [ 3.50995385E+00,  4.78670384E-02, -2.40781384E-05,
                       3.71046938E-09,  3.85442115E-13, -4.89447076E+04,
                       1.22017268E+01]),
                NASA([1386.21, 3000.00],
                     [ 1.24543146E+01,  3.02396862E-02, -1.38577031E-05,
                       3.05328904E-09, -2.63982457E-13, -5.22105909E+04,
                      -3.67061828E+01])))

species(name='HO2',
        atoms='H:1 O:2',
        thermo=(NASA([10.00, 891.11],
                     [ 4.02887004E+00, -1.75769289E-03,  1.08726004E-05,
                      -1.13812972E-08,  3.90113097E-12,  4.95165001E+02,
                       4.69302008E+00]),
                NASA([891.11, 3000.00],
                     [ 3.06571044E+00,  4.28505005E-03, -2.19325920E-06,
                       5.58882699E-10, -5.61246669E-14,  5.98557610E+02,
                       8.84564156E+00])))

species(name='CH3',
        atoms='C:1 H:3',
        thermo=(NASA([10.00, 616.77],
                     [ 3.98929952E+00,  5.45150461E-04,  9.01320092E-06,
                      -1.08320497E-08,  4.38985879E-12,  1.65859883E+04,
                       2.22446886E-01]),
                NASA([616.77, 3000.00],
                     [ 3.35928237E+00,  4.63117126E-03, -9.24365433E-07,
                      -9.02514624E-11,  3.56905106E-14,  1.66637014E+04,
                       2.95743732E+00])))

#-------------------------------------------------------------------------------
# Reaction data
#-------------------------------------------------------------------------------

# Reaction 1
chebyshev_reaction('aQOOH[O] (+ M) <=> aQOOHb (+ M)',
                   Tmin=180.0, Tmax=1500.0,
                   Pmin=(0.01, 'atm'), Pmax=(98.692, 'atm'),
                   coeffs=[[-8.76900e+00,  3.72900e+00, -3.06300e-01, -1.74100e-03, -3.76200e-02,  2.51800e-03,  4.12700e-03, -1.53000e-03],
                           [-1.51900e+00,  1.91000e+00,  6.94200e-01, -6.63200e-02, -5.89000e-03,  4.26700e-03, -3.13600e-03,  4.67000e-04],
                           [-3.26300e+00, -5.34300e-02, -1.00500e-01, -2.18800e-02,  2.33000e-02,  1.13800e-02,  1.08500e-03, -1.28200e-03],
                           [-1.64400e+00, -2.49800e-01, -1.92500e-01, -4.06600e-02,  1.38100e-02,  7.40600e-03,  3.66800e-04, -2.25200e-04],
                           [-6.86600e-01, -5.35400e-02, -8.81800e-02, -2.27500e-02,  4.00000e-03, -8.54600e-04, -7.15200e-04,  1.49000e-04],
                           [-2.46000e-01,  3.72400e-02, -7.49200e-03, -2.82900e-04, -2.29400e-03, -4.57300e-03, -9.58700e-04,  5.45900e-04],
                           [-8.53800e-02,  3.55500e-02,  1.79200e-02,  1.13000e-02, -2.42600e-03, -4.32200e-03, -4.01800e-04,  5.78500e-04],
                           [-3.46600e-02, -2.76400e-03,  1.47100e-02,  1.05300e-02, -7.55000e-04, -1.61600e-03,  1.01200e-04,  3.58400e-04],
                           [-2.34400e-02, -1.23200e-02,  2.53800e-03,  4.00300e-03,  6.06000e-04, -3.82800e-04,  7.36100e-04,  1.40600e-05],
                           [-1.24700e-02, -2.06700e-02,  1.70400e-04, -2.51400e-04, -1.22300e-03,  7.10900e-04,  4.37700e-04, -4.74800e-06]])

# Reaction 2
chebyshev_reaction('aQOOHg (+ M) <=> aQOOHb (+ M)',
                   Tmin=180.0, Tmax=1500.0,
                   Pmin=(0.01, 'atm'), Pmax=(98.692, 'atm'),
                   coeffs=[[-1.35100e+01,  2.79100e+00,  4.73600e-02, -1.37700e-01, -5.74700e-02,  2.01100e-02,  4.90000e-03, -1.86200e-03],
                           [ 2.55200e+00,  3.22400e+00,  5.50100e-01, -1.44500e-01,  7.38700e-03,  7.48200e-03, -4.76300e-03, -9.12200e-04],
                           [-2.62500e+00, -9.96900e-02, -7.77100e-02,  1.11000e-01,  4.78800e-02, -9.12600e-03, -4.76100e-03,  7.91200e-04],
                           [-1.66500e+00, -7.19100e-01, -1.20500e-01,  8.02200e-02,  1.36600e-02, -8.94600e-03,  1.78700e-03,  1.36600e-03],
                           [-7.96200e-01, -3.94500e-01, -5.56200e-02,  2.39800e-02, -1.31500e-02, -3.29900e-03,  4.09500e-03,  2.78800e-04],
                           [-3.35800e-01, -1.84300e-01, -2.81400e-02,  5.15100e-03, -1.25900e-02,  1.07100e-03,  2.24600e-03, -7.90700e-04],
                           [-1.02000e-01, -1.02600e-01, -1.08000e-02, -4.72300e-04, -3.80900e-03,  2.32700e-03, -2.38700e-04, -8.65800e-04],
                           [-1.14500e-02, -2.46300e-02, -1.58200e-02, -4.63400e-03,  1.72800e-03,  2.13600e-03, -1.19700e-03, -3.10900e-04],
                           [ 4.03200e-02, -7.77600e-03, -2.24500e-03, -1.27700e-02,  1.58200e-03,  1.87500e-03, -8.03100e-04,  2.03200e-04],
                           [ 1.51800e-02,  5.32300e-02, -1.11400e-02, -8.31800e-03, -9.85400e-04,  5.08900e-04, -7.05900e-05,  4.17500e-04]])

# Reaction 3
chebyshev_reaction('aRO2 (+ M) <=> aQOOHb (+ M)',
                   Tmin=180.0, Tmax=1500.0,
                   Pmin=(0.01, 'atm'), Pmax=(98.692, 'atm'),
                   coeffs=[[-1.25100e+01,  2.08000e+00,  2.23800e-01, -3.87100e-02, -1.98800e-02,  2.21100e-04, -1.76600e-04, -5.80800e-04],
                           [ 3.63100e+00,  2.46400e+00,  4.03100e-01, -6.66500e-02, -2.92200e-02,  4.09800e-03,  3.19200e-03,  3.95000e-04],
                           [-3.59100e+00,  3.59100e-01,  4.69300e-02, -1.68200e-02,  1.42300e-02,  1.06900e-02, -1.32200e-03, -2.15800e-03],
                           [-2.02300e+00, -3.12400e-01, -1.79800e-01, -3.95100e-02,  2.06100e-02,  1.36300e-02,  9.18400e-04, -1.31100e-03],
                           [-7.82100e-01, -1.73700e-01, -1.44100e-01, -3.62900e-02,  8.26500e-03,  3.27200e-03, -1.58900e-03, -5.82900e-05],
                           [-1.61700e-01,  7.78300e-03, -5.05300e-02, -1.11100e-02,  3.22700e-03, -2.56100e-03, -2.73000e-03, -9.54200e-05],
                           [-2.02800e-04,  6.76600e-02, -1.10900e-03,  5.72400e-03,  1.22700e-03, -4.70800e-03, -1.72500e-03,  9.67600e-04],
                           [-1.50500e-02,  5.37700e-02,  1.08500e-02,  9.58200e-03,  1.55200e-03, -2.98200e-03, -2.82700e-04,  9.50100e-04],
                           [-5.75200e-02,  1.71000e-02,  8.96400e-03,  1.01500e-02,  2.50100e-03, -1.62900e-03, -8.11100e-05,  5.05300e-04],
                           [-4.91200e-02, -8.26400e-03,  6.21200e-04,  2.70500e-03,  6.67600e-05, -1.30600e-04,  1.13800e-03,  4.79500e-04]])

# Reaction 4
chebyshev_reaction('aadduct (+ M) <=> aQOOHb (+ M)',
                   Tmin=180.0, Tmax=1500.0,
                   Pmin=(0.01, 'atm'), Pmax=(98.692, 'atm'),
                   coeffs=[[-1.40500e+01,  2.73500e+00,  1.78500e-01, -1.50300e-01, -4.11300e-02,  9.58000e-03,  6.68000e-03, -1.97500e-04],
                           [-1.28500e+00,  1.66100e+00,  4.87500e-01,  1.09900e-01, -1.41400e-02, -1.99300e-02, -4.39200e-03,  2.00200e-03],
                           [-4.05000e+00,  9.08300e-02, -1.56800e-01, -5.47000e-02,  2.70900e-02,  2.12100e-02,  2.43700e-03, -3.16000e-03],
                           [-1.92900e+00, -1.28000e-01, -1.53500e-01, -5.35500e-02,  5.34100e-03,  9.00700e-03,  2.34500e-03, -2.45900e-04],
                           [-6.84500e-01, -8.25300e-02, -8.18100e-02, -1.15100e-02,  9.14100e-03,  1.32900e-03, -2.50600e-03, -8.19000e-04],
                           [-2.42300e-01,  1.33100e-02, -3.73400e-02, -5.59100e-03,  3.41300e-03, -1.18600e-03, -1.87700e-03, -1.87900e-04],
                           [-1.40600e-01,  4.30800e-02, -7.67700e-04,  7.24800e-03,  2.84300e-03, -3.47300e-03, -2.43600e-03,  9.17300e-05],
                           [-6.35100e-02,  7.03500e-02,  1.17500e-02,  4.98200e-03,  2.11900e-04, -1.93900e-03, -2.91500e-04,  5.22000e-04],
                           [ 8.45700e-02, -2.76500e-02, -8.86500e-03,  1.92700e-03,  2.69400e-03,  8.26000e-04,  3.86600e-04,  2.47400e-04],
                           [-1.10400e-01,  3.41000e-02,  1.30700e-02,  2.50700e-03, -2.20500e-03, -1.23300e-03,  5.95400e-04,  5.08700e-04]])

# Reaction 5
chebyshev_reaction('O2 + aR (+ M) <=> aQOOHb (+ M)',
                   Tmin=180.0, Tmax=1500.0,
                   Pmin=(0.01, 'atm'), Pmax=(98.692, 'atm'),
                   coeffs=[[-4.88100e+00,  8.91800e+00,  1.05200e+00, -7.08400e-01, -2.63700e-01,  3.92700e-02, -1.98800e-03,  2.63100e-02],
                           [-9.61500e-01, -2.43400e+00, -1.05400e-01,  5.96300e-01,  1.65000e-01, -7.66300e-02,  2.38600e-02, -2.25300e-02],
                           [-1.45800e+00, -7.94000e-01,  5.39300e-02,  2.01300e-02,  5.90400e-02,  6.69500e-02, -3.89900e-02, -2.39100e-02],
                           [-8.65400e-01, -1.69300e-02, -3.54900e-01, -2.47100e-03,  8.22700e-02, -2.38500e-02, -6.81500e-03,  2.08700e-02],
                           [-2.94900e-01, -3.38400e-02, -1.67700e-01,  2.80000e-02, -1.59200e-02, -9.22100e-03,  2.03500e-02, -4.18600e-03],
                           [-4.43000e-02, -5.95400e-02,  3.88400e-02, -3.85400e-02, -1.44000e-02,  1.59800e-02, -3.46100e-03, -3.23600e-03],
                           [-4.13900e-02,  5.01500e-02,  1.77000e-02, -2.45600e-02,  1.29100e-02, -2.70800e-03, -6.27900e-03,  5.74100e-03],
                           [-5.43800e-02,  8.24800e-02, -4.32700e-02,  2.85700e-02, -1.19800e-03, -1.14000e-02,  7.35900e-03,  1.68200e-03],
                           [-8.86200e-03, -1.50500e-02, -4.24500e-05,  1.44700e-02, -1.33900e-02,  4.61700e-03,  4.06600e-03, -4.88700e-03],
                           [ 1.08000e-03, -2.97200e-02,  1.50500e-02, -1.10500e-02,  1.07200e-03,  4.03800e-03, -4.27900e-03,  8.50100e-04]])
#  aQOOHb(+M) <=> aQOOH[O](+M)                         1.000e+00 0.000     0.000
#      TCHEB/ 180.000   1500.000 /
#      PCHEB/ 0.010     98.692   /
#      CHEB/ 10 8/
#      CHEB/ -1.259e+01   3.729e+00    -3.063e-01   -1.741e-03   -3.762e-02  /
#      CHEB/ 2.518e-03    4.127e-03    -1.530e-03   1.269e-01    1.910e+00   /
#      CHEB/ 6.942e-01    -6.632e-02   -5.890e-03   4.267e-03    -3.136e-03  /
#      CHEB/ 4.670e-04    -3.186e+00   -5.343e-02   -1.005e-01   -2.188e-02  /
#      CHEB/ 2.330e-02    1.138e-02    1.085e-03    -1.282e-03   -1.598e+00  /
#      CHEB/ -2.498e-01   -1.925e-01   -4.066e-02   1.381e-02    7.406e-03   /
#      CHEB/ 3.668e-04    -2.252e-04   -6.713e-01   -5.354e-02   -8.818e-02  /
#      CHEB/ -2.275e-02   4.000e-03    -8.546e-04   -7.152e-04   1.490e-04   /
#      CHEB/ -2.413e-01   3.724e-02    -7.492e-03   -2.829e-04   -2.294e-03  /
#      CHEB/ -4.573e-03   -9.587e-04   5.459e-04    -8.357e-02   3.555e-02   /
#      CHEB/ 1.792e-02    1.130e-02    -2.426e-03   -4.322e-03   -4.018e-04  /
#      CHEB/ 5.785e-04    -3.395e-02   -2.764e-03   1.471e-02    1.053e-02   /
#      CHEB/ -7.550e-04   -1.616e-03   1.012e-04    3.584e-04    -2.324e-02  /
#      CHEB/ -1.232e-02   2.538e-03    4.003e-03    6.060e-04    -3.828e-04  /
#      CHEB/ 7.361e-04    1.406e-05    -1.246e-02   -2.067e-02   1.704e-04   /
#      CHEB/ -2.514e-04   -1.223e-03   7.109e-04    4.377e-04    -4.748e-06  /

# Reaction 6
chebyshev_reaction('aQOOHg (+ M) <=> aQOOH[O] (+ M)',
                   Tmin=180.0, Tmax=1500.0,
                   Pmin=(0.01, 'atm'), Pmax=(98.692, 'atm'),
                   coeffs=[[-6.86500e+00,  1.65400e+00, -1.59100e-01, -3.25600e-02, -5.21800e-03,  1.10600e-03,  8.63600e-04,  2.22300e-04],
                           [ 1.83200e+00,  1.46000e+00,  2.99600e-01,  6.55300e-02, -4.09900e-03, -6.25400e-03, -1.40800e-03,  6.97800e-05],
                           [-2.88700e+00, -4.03100e-02, -3.88900e-02,  3.41700e-02,  1.86400e-02,  3.86100e-03, -8.26000e-04, -7.18000e-04],
                           [-1.70500e+00, -2.17100e-01, -8.86700e-02, -6.13200e-03,  6.39600e-03,  3.26100e-03,  6.41700e-04, -8.78800e-05],
                           [-9.21500e-01, -1.29700e-01, -3.83500e-02, -1.11500e-02, -5.00600e-04,  1.07200e-03,  4.43800e-04,  4.10000e-05],
                           [-4.56400e-01, -6.96900e-02, -1.54200e-02, -8.64300e-03, -1.56000e-03,  4.70600e-04,  2.67400e-04,  4.42700e-05],
                           [-1.85800e-01, -3.41600e-02, -1.46400e-02, -7.37500e-03, -1.86100e-03,  1.63000e-04,  2.74100e-04,  9.96300e-05],
                           [-4.20500e-02, -7.98700e-03, -1.54400e-02, -5.91400e-03, -2.02100e-03, -2.86000e-04,  2.33800e-04,  1.44900e-04],
                           [ 1.95900e-02,  2.11900e-02, -9.19800e-03, -4.88700e-03, -1.92900e-03, -5.75300e-04,  1.27300e-04,  1.39200e-04],
                           [ 2.73300e-02,  3.28300e-02,  1.14900e-03, -3.11300e-03, -1.55200e-03, -5.13500e-04,  3.44600e-05,  8.97400e-05]])

# Reaction 7
chebyshev_reaction('aRO2 (+ M) <=> aQOOH[O] (+ M)',
                   Tmin=180.0, Tmax=1500.0,
                   Pmin=(0.01, 'atm'), Pmax=(98.692, 'atm'),
                   coeffs=[[-6.75000e+00,  2.75600e+00, -3.58600e-01, -9.34100e-03,  1.88500e-02,  1.68800e-03, -1.53600e-03, -8.04100e-04],
                           [ 4.06400e+00,  8.36500e-01,  3.17900e-01,  1.78100e-02, -3.28700e-02, -6.64200e-03,  3.00100e-03,  2.08800e-03],
                           [-4.48000e+00,  1.25300e-01,  3.75300e-02,  1.17100e-02,  1.19700e-02,  2.47300e-03, -2.63200e-03, -1.74000e-03],
                           [-2.27400e+00, -7.44600e-02, -4.74300e-02, -2.06200e-02, -1.47100e-03,  2.48100e-03,  2.01700e-03,  6.87400e-04],
                           [-9.06800e-01, -4.79200e-02, -3.82400e-02, -1.84300e-02, -4.31700e-03, -8.22300e-04,  1.79200e-05,  3.06300e-04],
                           [-2.47700e-01,  1.10000e-02, -2.12200e-02, -8.86000e-03, -4.20100e-04,  7.93800e-04,  7.98800e-05, -3.64900e-04],
                           [-3.65900e-02,  5.13200e-02, -1.75300e-03, -2.04800e-03, -2.72200e-04, -2.15400e-04, -1.89400e-04,  6.83700e-05],
                           [-2.07800e-02,  4.43900e-02,  1.07600e-02,  2.06700e-03, -1.54100e-04, -1.31800e-04,  1.08500e-04,  9.00700e-05],
                           [-5.70700e-02,  1.70200e-02,  1.48800e-02,  5.49500e-03,  2.39000e-03, -1.34200e-04, -7.45100e-04, -4.19100e-04],
                           [-4.47800e-02, -1.07400e-02,  6.63200e-03,  2.14200e-03, -5.97800e-04, -1.29100e-04,  5.07900e-04,  3.64800e-04]])

# Reaction 8
chebyshev_reaction('aadduct (+ M) <=> aQOOH[O] (+ M)',
                   Tmin=180.0, Tmax=1500.0,
                   Pmin=(0.01, 'atm'), Pmax=(98.692, 'atm'),
                   coeffs=[[-8.25000e+00,  3.45500e+00, -3.78200e-01, -1.30200e-01, -1.01300e-02,  7.71600e-03,  4.85800e-03,  1.28000e-03],
                           [-9.18500e-01, -1.10800e-01,  3.39600e-01,  1.69500e-01, -1.14300e-04, -1.55900e-02, -5.10600e-03, -5.07800e-04],
                           [-4.90000e+00, -1.01400e-01, -1.37100e-01, -3.32000e-02,  2.23800e-02,  1.17000e-02, -6.74500e-05, -1.51300e-03],
                           [-2.18200e+00,  1.01400e-01, -2.24100e-02, -4.04400e-02, -1.24400e-02,  4.38300e-04,  2.32400e-03,  9.15800e-04],
                           [-8.19400e-01,  3.21000e-02,  1.38800e-02, -1.34400e-03, -3.47400e-03, -2.37700e-03, -8.16800e-04,  7.86800e-05],
                           [-3.30000e-01,  2.77800e-02, -7.20400e-03, -4.09000e-03, -1.42400e-03,  2.98000e-05,  3.74900e-04,  1.35000e-04],
                           [-1.79800e-01,  3.75600e-02, -1.45100e-04,  1.55000e-03,  1.23400e-03, -4.36800e-04, -7.97300e-04, -2.26100e-04],
                           [-7.30500e-02,  6.69100e-02,  1.16300e-02, -5.12700e-04, -1.57700e-03, -2.95000e-04,  2.95900e-04,  7.19700e-05],
                           [ 8.36200e-02, -2.30100e-02, -2.32400e-03, -1.72500e-03,  1.66800e-03,  1.06500e-03,  4.98500e-05, -1.45600e-04],
                           [-1.07600e-01,  3.18200e-02,  1.94100e-02,  3.32800e-03, -2.38300e-03, -1.38700e-03,  1.24000e-04,  3.04100e-04]])

# Reaction 9
chebyshev_reaction('O2 + aR (+ M) <=> aQOOH[O] (+ M)',
                   Tmin=180.0, Tmax=1500.0,
                   Pmin=(0.01, 'atm'), Pmax=(98.692, 'atm'),
                   coeffs=[[ 1.39800e+00,  5.43800e+00,  6.21300e-01, -2.09900e-01, -8.21100e-02, -6.71300e-03, -1.43700e-02,  1.34500e-02],
                           [-7.21200e-01, -2.83200e+00, -2.77200e-01,  3.97600e-01,  8.38900e-02, -2.42400e-02,  2.03200e-02, -1.90600e-02],
                           [-1.19100e+00, -4.93200e-01, -1.67100e-02, -9.78300e-02,  1.53400e-02,  4.35500e-02, -1.62000e-02,  3.54700e-03],
                           [-7.98600e-01,  9.45500e-02, -1.88500e-01,  5.92500e-03,  1.46100e-02, -1.91100e-02,  9.21500e-03,  3.25000e-03],
                           [-3.28300e-01, -1.30900e-02, -1.61800e-02, -6.04200e-03, -1.28800e-02,  5.19400e-03, -2.78800e-05, -3.88100e-03],
                           [-1.49000e-01,  2.29900e-02,  3.14000e-02, -3.07500e-02,  5.04800e-03,  2.87800e-03, -4.10300e-03,  3.16000e-03],
                           [-7.77800e-02,  4.49100e-02, -3.24100e-03,  2.45300e-03, -4.71800e-03,  1.70400e-04,  3.04600e-03, -2.50800e-03],
                           [-2.06000e-02,  5.18500e-03, -5.47800e-04,  5.41900e-03, -3.41900e-03, -3.07600e-04,  2.36300e-04,  3.26900e-04],
                           [-9.88200e-03, -1.42500e-02,  7.36700e-03, -1.36400e-03,  1.10600e-03, -1.45900e-03,  7.32400e-06,  1.06900e-03],
                           [-8.53100e-03,  3.09800e-03, -2.36100e-03,  3.38700e-04,  1.47800e-04, -8.34900e-06,  1.37300e-04, -4.59400e-04]])
#  aQOOHb(+M) <=> aQOOHg(+M)                           1.000e+00 0.000     0.000
#      TCHEB/ 180.000   1500.000 /
#      PCHEB/ 0.010     98.692   /
#      CHEB/ 10 8/
#      CHEB/ -1.390e+01   2.791e+00    4.736e-02    -1.377e-01   -5.747e-02  /
#      CHEB/ 2.011e-02    4.900e-03    -1.862e-03   1.656e+00    3.224e+00   /
#      CHEB/ 5.501e-01    -1.445e-01   7.387e-03    7.482e-03    -4.763e-03  /
#      CHEB/ -9.122e-04   -2.402e+00   -9.969e-02   -7.771e-02   1.110e-01   /
#      CHEB/ 4.788e-02    -9.126e-03   -4.761e-03   7.912e-04    -1.571e+00  /
#      CHEB/ -7.191e-01   -1.205e-01   8.022e-02    1.366e-02    -8.946e-03  /
#      CHEB/ 1.787e-03    1.366e-03    -7.680e-01   -3.945e-01   -5.562e-02  /
#      CHEB/ 2.398e-02    -1.315e-02   -3.299e-03   4.095e-03    2.788e-04   /
#      CHEB/ -3.279e-01   -1.843e-01   -2.814e-02   5.151e-03    -1.259e-02  /
#      CHEB/ 1.071e-03    2.246e-03    -7.907e-04   -9.944e-02   -1.026e-01  /
#      CHEB/ -1.080e-02   -4.723e-04   -3.809e-03   2.327e-03    -2.387e-04  /
#      CHEB/ -8.658e-04   -1.072e-02   -2.463e-02   -1.582e-02   -4.634e-03  /
#      CHEB/ 1.728e-03    2.136e-03    -1.197e-03   -3.109e-04   4.034e-02   /
#      CHEB/ -7.776e-03   -2.245e-03   -1.277e-02   1.582e-03    1.875e-03   /
#      CHEB/ -8.031e-04   2.032e-04    1.504e-02    5.323e-02    -1.114e-02  /
#      CHEB/ -8.318e-03   -9.854e-04   5.089e-04    -7.059e-05   4.175e-04   /
#  aQOOH[O](+M) <=> aQOOHg(+M)                         1.000e+00 0.000     0.000
#      TCHEB/ 180.000   1500.000 /
#      PCHEB/ 0.010     98.692   /
#      CHEB/ 10 8/
#      CHEB/ -3.437e+00   1.654e+00    -1.591e-01   -3.256e-02   -5.218e-03  /
#      CHEB/ 1.106e-03    8.636e-04    2.223e-04    -7.106e-01   1.460e+00   /
#      CHEB/ 2.996e-01    6.553e-02    -4.099e-03   -6.254e-03   -1.408e-03  /
#      CHEB/ 6.978e-05    -2.742e+00   -4.031e-02   -3.889e-02   3.417e-02   /
#      CHEB/ 1.864e-02    3.861e-03    -8.260e-04   -7.180e-04   -1.657e+00  /
#      CHEB/ -2.171e-01   -8.867e-02   -6.132e-03   6.396e-03    3.261e-03   /
#      CHEB/ 6.417e-04    -8.788e-05   -9.087e-01   -1.297e-01   -3.835e-02  /
#      CHEB/ -1.115e-02   -5.006e-04   1.072e-03    4.438e-04    4.100e-05   /