units(length='cm', time='s', quantity='mol', act_energy='kcal/mol')

ideal_gas(name='gas',
          elements="H D T C Ci O Oi N Ne Ar He Si S F Cl Br I X",
          species="""OH             bQOOH[O]       acetone
                     H2O            balkoxyketone  ibutenol
                     trisub_epoxy   bQOOHg         CH2O
                     galkene        O2             bR
                     bQOOHa         bRO2           disub_epoxy
                     HO2""",
          reactions='all',
          initial_state=state(temperature=300.0, pressure=OneAtm))

#-------------------------------------------------------------------------------
# Element data
#-------------------------------------------------------------------------------

element(symbol='Ci', atomic_mass=13.003)
element(symbol='D', atomic_mass=2.014)
element(symbol='Oi', atomic_mass=18.0)
element(symbol='T', atomic_mass=3.016)
element(symbol='X', atomic_mass=195.083)
#-------------------------------------------------------------------------------
# Species data
#-------------------------------------------------------------------------------

species(name='OH',
        atoms='H:1 O:1',
        thermo=(NASA([10.00, 984.14],
                     [ 3.49686242E+00,  1.83973160E-04, -9.97634499E-07,
                       1.56942783E-09, -6.10128175E-13,  3.41673934E+03,
                       1.48093120E+00]),
                NASA([984.14, 3000.00],
                     [ 3.45221464E+00, -2.95124034E-04,  7.39418622E-07,
                      -2.89309866E-10,  3.53041498E-14,  3.45751599E+03,
                       1.85813897E+00])))

species(name='bQOOH[O]',
        atoms='C:4 H:9 O:3',
        thermo=(NASA([10.00, 338.69],
                     [ 3.60915854E+00,  3.39069566E-02,  2.22227265E-04,
                      -8.23527342E-07,  8.56246333E-10, -2.23619762E+04,
                       1.23284605E+01]),
                NASA([338.69, 3000.00],
                     [ 5.03198881E+00,  5.46235886E-02, -3.56935806E-05,
                       1.12371751E-08, -1.35390171E-12, -2.26735589E+04,
                       3.82760723E+00])))

species(name='acetone',
        atoms='C:3 H:6 O:1',
        thermo=(NASA([10.00, 414.35],
                     [ 3.73496166E+00,  3.05743218E-02, -1.26253585E-04,
                       3.66080978E-07, -3.31430437E-10, -2.70413068E+04,
                       8.24936012E+00]),
                NASA([414.35, 3000.00],
                     [ 1.70010292E-01,  3.28431468E-02, -1.80960132E-05,
                       4.82960690E-09, -5.02388538E-13, -2.64699237E+04,
                       2.56372653E+01])))

species(name='H2O',
        atoms='H:2 O:1',
        thermo=(NASA([10.00, 773.84],
                     [ 4.00473541E+00, -2.39729134E-04,  8.11862955E-07,
                       1.47891862E-09, -1.19783539E-12, -3.03533807E+04,
                      -9.96254147E-02]),
                NASA([773.84, 3000.00],
                     [ 3.52133374E+00,  1.05377009E-03,  6.40722099E-07,
                      -3.86240235E-10,  5.49243294E-14, -3.02424794E+04,
                       2.34173094E+00])))

species(name='balkoxyketone',
        atoms='C:4 H:7 O:2',
        thermo=(NASA([10.00, 269.93],
                     [ 3.81931151E+00,  1.68519318E-02,  2.42742224E-04,
                      -9.64821161E-07,  1.18509335E-09, -1.97822931E+04,
                       1.20521854E+01]),
                NASA([269.93, 3000.00],
                     [ 3.57555944E+00,  4.28868089E-02, -2.65390705E-05,
                       7.99659117E-09, -9.32983470E-13, -1.98508212E+04,
                       1.13957990E+01])))

species(name='ibutenol',
        atoms='C:4 H:8 O:1',
        thermo=(NASA([10.00, 135.97],
                     [ 3.95714996E+00,  5.72646980E-03,  4.63611760E-04,
                      -3.04137514E-06,  6.85019471E-09, -2.28062567E+04,
                       8.21931848E+00]),
                NASA([135.97, 3000.00],
                     [ 3.32467612E+00,  3.69033556E-02, -1.89960416E-05,
                       4.73417677E-09, -4.59705291E-13, -2.28006780E+04,
                       9.58133237E+00])))

species(name='trisub_epoxy',
        atoms='C:4 H:8 O:2',
        thermo=(NASA([10.00, 209.19],
                     [ 3.75295042E+00,  2.37546930E-02,  1.26610110E-04,
                      -4.78364365E-07,  5.79468168E-10, -3.97800947E+04,
                       1.12739684E+01]),
                NASA([209.19, 3000.00],
                     [ 2.64185254E+00,  4.50006531E-02, -2.57361066E-05,
                       7.15266054E-09, -7.72980731E-13, -3.97336092E+04,
                       1.48960343E+01])))

species(name='bQOOHg',
        atoms='C:4 H:9 O:3',
        thermo=(NASA([10.00, 441.09],
                     [ 3.56595280E+00,  3.36073467E-02,  2.03462772E-04,
                      -5.98977617E-07,  4.83271168E-10, -2.48543130E+04,
                       1.33537891E+01]),
                NASA([441.09, 3000.00],
                     [ 6.09031192E+00,  5.80517622E-02, -4.06392697E-05,
                       1.32574026E-08, -1.62501077E-12, -2.55374984E+04,
                      -1.97849715E+00])))

species(name='CH2O',
        atoms='C:1 H:2 O:1',
        thermo=(NASA([10.00, 601.31],
                     [ 4.03190845E+00, -1.93233367E-03,  8.89743345E-06,
                       2.98105926E-09, -7.90813886E-12, -1.42276270E+04,
                       3.47574660E+00]),
                NASA([601.31, 3000.00],
                     [ 1.40134195E+00,  9.48858016E-03, -4.43088317E-06,
                       9.48452194E-10, -7.43790219E-14, -1.38013869E+04,
                       1.57423780E+01])))

species(name='galkene',
        atoms='C:4 H:8 O:1',
        thermo=(NASA([10.00, 383.47],
                     [ 3.84035604E+00,  1.20378740E-02,  1.87486319E-04,
                      -5.44759148E-07,  4.80711015E-10, -2.16309453E+04,
                       1.02570291E+01]),
                NASA([383.47, 3000.00],
                     [ 4.00413385E+00,  3.79025144E-02, -2.15435710E-05,
                       6.15213311E-09, -6.97446345E-13, -2.18462346E+04,
                       6.98052628E+00])))

species(name='O2',
        atoms='O:2',
        thermo=(NASA([10.00, 605.96],
                     [ 3.50743498E+00, -4.43860349E-04,  1.45938058E-06,
                       1.61509333E-09, -2.32050052E-12, -9.24756224E+02,
                       4.72183634E+00]),
                NASA([605.96, 3000.00],
                     [ 2.87462882E+00,  2.17840991E-03, -1.18262921E-06,
                       2.86910493E-10, -2.53297146E-14, -8.19517838E+02,
                       7.69331810E+00])))

species(name='bR',
        atoms='C:4 H:9 O:1',
        thermo=(NASA([10.00, 483.43],
                     [ 3.38164846E+00,  5.97142637E-02, -1.58320095E-04,
                       3.04908893E-07, -2.13091806E-10, -1.41219626E+04,
                       1.09226843E+01]),
                NASA([483.43, 3000.00],
                     [ 2.33428824E+00,  4.22094427E-02, -2.28029290E-05,
                       6.04614564E-09, -6.30240159E-13, -1.37148807E+04,
                       1.83772893E+01])))

species(name='bQOOHa',
        atoms='C:4 H:9 O:3',
        thermo=(NASA([10.00, 390.53],
                     [ 3.54969236E+00,  3.76592474E-02,  1.76622653E-04,
                      -5.98063750E-07,  5.45069236E-10, -2.75672452E+04,
                       1.31518761E+01]),
                NASA([390.53, 3000.00],
                     [ 5.33564209E+00,  5.64935715E-02, -3.83214298E-05,
                       1.22990604E-08, -1.49549987E-12, -2.79898552E+04,
                       2.59015836E+00])))

species(name='bRO2',
        atoms='C:4 H:9 O:3',
        thermo=(NASA([10.00, 461.39],
                     [ 3.53964713E+00,  3.88723795E-02,  9.57420148E-05,
                      -2.80380499E-07,  2.09647462E-10, -3.29009962E+04,
                       1.18803618E+01]),
                NASA([461.39, 3000.00],
                     [ 3.47201723E+00,  6.00510247E-02, -4.00567321E-05,
                       1.25663813E-08, -1.49496682E-12, -3.31139430E+04,
                       9.77903975E+00])))

species(name='disub_epoxy',
        atoms='C:4 H:8 O:2',
        thermo=(NASA([10.00, 549.41],
                     [ 3.89863211E+00,  5.97532637E-03,  1.66685676E-04,
                      -3.10743768E-07,  1.78330192E-10, -3.79189154E+04,
                       1.13847308E+01]),
                NASA([549.41, 3000.00],
                     [-6.40277648E-01,  6.05960003E-02, -4.13427220E-05,
                       1.31555461E-08, -1.57685017E-12, -3.77457986E+04,
                       2.76005436E+01])))

species(name='HO2',
        atoms='H:1 O:2',
        thermo=(NASA([10.00, 891.11],
                     [ 4.02887004E+00, -1.75769289E-03,  1.08726004E-05,
                      -1.13812972E-08,  3.90113097E-12,  4.95165001E+02,
                       4.69302008E+00]),
                NASA([891.11, 3000.00],
                     [ 3.06571044E+00,  4.28505005E-03, -2.19325920E-06,
                       5.58882699E-10, -5.61246669E-14,  5.98557610E+02,
                       8.84564156E+00])))

#-------------------------------------------------------------------------------
# Reaction data
#-------------------------------------------------------------------------------

# Reaction 1
chebyshev_reaction('bQOOHg (+ M) <=> bRO2 (+ M)',
                   Tmin=180.0, Tmax=1500.0,
                   Pmin=(0.01, 'atm'), Pmax=(98.692, 'atm'),
                   coeffs=[[ 3.12100e+00,  4.33500e-01, -1.18100e-01,  2.70900e-03,  3.29000e-03,  2.40400e-04, -5.13000e-05, -3.29600e-05],
                           [ 2.77300e+00,  7.83300e-01, -2.02900e-01, -6.34300e-04,  6.32900e-03,  7.71900e-04, -1.30400e-04, -7.32800e-05],
                           [ 7.60100e-01,  5.75300e-01, -1.23400e-01, -1.32100e-02,  5.08600e-03,  1.44900e-03, -1.47200e-04, -9.62500e-05],
                           [-2.85100e-02,  3.39600e-01, -4.21600e-02, -2.13300e-02,  2.33200e-03,  2.00800e-03, -3.29000e-05, -1.26000e-04],
                           [-1.86100e-01,  1.58900e-01,  7.23700e-03, -1.92000e-02, -1.11000e-03,  1.93700e-03,  2.29800e-04, -1.31500e-04],
                           [-1.17900e-01,  5.98000e-02,  2.03800e-02, -1.01700e-02, -3.42700e-03,  1.13400e-03,  4.91900e-04, -7.98400e-05],
                           [-4.06200e-02,  2.11100e-02,  1.38200e-02, -1.56100e-03, -3.54800e-03,  4.66200e-05,  5.57700e-04,  2.31000e-05],
                           [-8.08200e-03,  9.42500e-03,  5.05900e-03,  2.35500e-03, -2.07000e-03, -6.98300e-04,  3.71800e-04,  1.21500e-04],
                           [-3.03600e-03,  4.16600e-03,  1.19200e-03,  2.25200e-03, -4.43200e-04, -8.10100e-04,  7.13500e-05,  1.53600e-04],
                           [-3.53600e-03,  9.03400e-05,  8.66900e-04,  8.95900e-04,  3.86600e-04, -4.84600e-04, -1.47100e-04,  1.06800e-04]])

# Reaction 2
chebyshev_reaction('bQOOHa (+ M) <=> bRO2 (+ M)',
                   Tmin=180.0, Tmax=1500.0,
                   Pmin=(0.01, 'atm'), Pmax=(98.692, 'atm'),
                   coeffs=[[ 7.53300e-01,  1.23600e+00, -1.61000e-01, -2.56800e-02,  2.38700e-03,  5.94800e-04, -4.34300e-05,  3.12500e-05],
                           [ 3.94500e+00,  1.22400e+00, -6.70600e-02, -1.58800e-02, -1.13800e-02, -6.54400e-04,  7.81300e-04,  1.70700e-04],
                           [ 1.00100e+00,  1.41400e-01,  3.41100e-02,  2.16300e-02, -3.02900e-03, -3.46300e-03, -8.87700e-04,  1.89400e-04],
                           [-6.12700e-02,  3.19100e-02, -2.91900e-02,  1.26800e-02,  9.40800e-03, -6.23900e-04, -1.41100e-03, -3.96100e-04],
                           [-2.26500e-01,  1.36800e-01, -4.49700e-02, -4.97900e-03,  5.51800e-03,  2.10800e-03, -1.99100e-05, -4.12000e-04],
                           [-1.03900e-01,  1.02400e-01, -1.12800e-02, -8.90900e-03, -8.85100e-04,  1.48300e-03,  6.46300e-04,  3.11100e-05],
                           [-9.61900e-03,  2.26500e-02,  7.64100e-03, -4.51500e-03, -1.21700e-03,  4.47300e-06,  2.40600e-04,  1.78800e-04],
                           [ 1.08900e-03, -9.59500e-04,  4.24000e-03, -1.56100e-03,  2.85100e-04, -1.66300e-04, -1.34300e-04,  2.07300e-05],
                           [-1.01500e-02,  4.93500e-03,  9.29800e-04, -7.69300e-04, -1.23800e-04,  1.44500e-04, -9.10300e-06, -5.59600e-05],
                           [-1.32400e-02,  9.90500e-03,  2.84500e-03, -1.72700e-03, -7.55200e-04,  3.71500e-04,  1.09500e-04, -3.94500e-05]])

# Reaction 3
chebyshev_reaction('bQOOH[O] (+ M) <=> bRO2 (+ M)',
                   Tmin=180.0, Tmax=1500.0,
                   Pmin=(0.01, 'atm'), Pmax=(98.692, 'atm'),
                   coeffs=[[ 9.74200e+00,  1.38700e+00, -3.01600e-01, -3.37600e-02,  1.74500e-02,  5.40700e-03, -2.02700e-03, -9.99100e-04],
                           [-5.08100e-01,  5.22300e-01,  5.38700e-02, -2.58500e-02, -2.18700e-02,  1.10200e-03,  4.03100e-03,  3.06200e-04],
                           [-3.72300e-01,  2.28800e-01,  2.10000e-02,  1.24100e-02, -8.56100e-03, -5.63700e-03,  3.90500e-04,  1.32100e-03],
                           [-2.04300e-01,  1.41600e-01, -1.55800e-03,  1.12300e-02,  1.75200e-06, -3.35100e-03, -1.24900e-03,  4.03300e-04],
                           [-1.31800e-01,  1.04000e-01, -6.83400e-03,  3.36100e-03,  1.75400e-03, -5.32500e-04, -8.38900e-04, -2.74200e-04],
                           [-6.25400e-02,  4.91700e-02, -7.68800e-03,  2.70600e-03,  2.22100e-03, -2.45100e-04, -4.88500e-04, -1.75400e-04],
                           [-3.99700e-02,  3.68600e-02, -5.54800e-03, -1.87400e-03,  1.68000e-03,  7.17100e-04, -1.54300e-04, -2.43300e-04],
                           [-1.06700e-02,  9.51200e-03, -2.92300e-03, -6.91900e-04,  1.01600e-03,  2.97000e-04, -2.63400e-05, -5.47700e-05],
                           [-1.19100e-02,  1.26000e-02, -5.89000e-04, -2.68300e-03,  2.70700e-04,  6.26800e-04,  1.02500e-04, -8.71000e-05],
                           [ 1.25000e-03, -2.14000e-03,  6.48600e-04, -3.98400e-04, -8.19500e-05,  5.88600e-05,  7.16800e-05,  4.05600e-05]])

# Reaction 4
chebyshev_reaction('O2 + bR (+ M) <=> bRO2 (+ M)',
                   Tmin=180.0, Tmax=1500.0,
                   Pmin=(0.01, 'atm'), Pmax=(98.692, 'atm'),
                   coeffs=[[ 1.12600e+01,  1.84100e-01, -5.85100e-02,  5.73400e-03,  5.98400e-04,  1.68900e-04, -5.92800e-05, -1.47300e-05],
                           [-3.34400e-01,  3.35000e-01, -1.01300e-01,  6.70100e-03,  2.19900e-03,  1.49700e-04, -8.00800e-05, -3.62900e-05],
                           [-1.63700e-01,  2.57100e-01, -6.66900e-02, -2.22800e-03,  3.44900e-03,  5.11600e-05, -7.01900e-05, -3.42000e-05],
                           [-1.27600e-01,  1.71600e-01, -3.31400e-02, -8.12100e-03,  3.20100e-03,  2.99600e-04, -9.91700e-05, -2.91000e-05],
                           [-8.47900e-02,  1.02600e-01, -1.11200e-02, -8.80400e-03,  1.66500e-03,  6.19800e-04, -8.23500e-05, -3.55100e-05],
                           [-5.07000e-02,  5.49100e-02, -2.41900e-05, -6.51400e-03,  1.06500e-04,  6.80000e-04,  6.06200e-06, -4.41800e-05],
                           [-2.67400e-02,  2.44500e-02,  4.62000e-03, -3.89300e-03, -7.14800e-04,  4.73200e-04,  9.94100e-05, -3.62800e-05],
                           [-1.13900e-02,  6.55400e-03,  5.91700e-03, -1.99100e-03, -8.66900e-04,  1.99100e-04,  1.34200e-04, -1.16900e-05],
                           [-3.04400e-03, -1.89700e-03,  5.18100e-03, -7.30900e-04, -7.16600e-04,  6.70700e-06,  1.09300e-04,  1.33300e-05],
                           [ 2.06600e-04, -3.87100e-03,  3.32100e-03,  8.19800e-05, -4.90500e-04, -8.53700e-05,  6.17800e-05,  2.56800e-05]])
#  bRO2(+M) <=> bQOOHg(+M)                             1.000e+00 0.000     0.000
#      TCHEB/ 180.000   1500.000 /
#      PCHEB/ 0.010     98.692   /
#      CHEB/ 10 8/
#      CHEB/ -6.798e+00   4.335e-01    -1.181e-01   2.709e-03    3.290e-03   /
#      CHEB/ 2.404e-04    -5.130e-05   -3.296e-05   1.171e+01    7.833e-01   /
#      CHEB/ -2.029e-01   -6.343e-04   6.329e-03    7.719e-04    -1.304e-04  /
#      CHEB/ -7.328e-05   9.059e-01    5.753e-01    -1.234e-01   -1.321e-02  /
#      CHEB/ 5.086e-03    1.449e-03    -1.472e-04   -9.625e-05   8.620e-03   /
#      CHEB/ 3.396e-01    -4.216e-02   -2.133e-02   2.332e-03    2.008e-03   /
#      CHEB/ -3.290e-05   -1.260e-04   -1.803e-01   1.589e-01    7.237e-03   /
#      CHEB/ -1.920e-02   -1.110e-03   1.937e-03    2.298e-04    -1.315e-04  /
#      CHEB/ -1.180e-01   5.980e-02    2.038e-02    -1.017e-02   -3.427e-03  /
#      CHEB/ 1.134e-03    4.919e-04    -7.984e-05   -4.120e-02   2.111e-02   /
#      CHEB/ 1.382e-02    -1.561e-03   -3.548e-03   4.662e-05    5.577e-04   /
#      CHEB/ 2.310e-05    -8.534e-03   9.425e-03    5.059e-03    2.355e-03   /
#      CHEB/ -2.070e-03   -6.983e-04   3.718e-04    1.215e-04    -3.360e-03  /
#      CHEB/ 4.166e-03    1.192e-03    2.252e-03    -4.432e-04   -8.101e-04  /
#      CHEB/ 7.135e-05    1.536e-04    -3.722e-03   9.034e-05    8.669e-04   /
#      CHEB/ 8.959e-04    3.866e-04    -4.846e-04   -1.471e-04   1.068e-04   /

# Reaction 5
chebyshev_reaction('bQOOHa (+ M) <=> bQOOHg (+ M)',
                   Tmin=180.0, Tmax=1500.0,
                   Pmin=(0.01, 'atm'), Pmax=(98.692, 'atm'),
                   coeffs=[[-9.48800e+00,  2.92000e-01, -3.42800e-01, -4.84900e-02,  6.65800e-04,  4.58900e-03,  1.17300e-03, -2.89400e-04],
                           [ 1.07600e+01,  1.40300e+00, -1.23600e-01,  9.27600e-03, -5.62600e-03, -5.99100e-03, -5.50500e-04,  8.04700e-04],
                           [ 1.05500e+00,  7.13000e-01, -8.05300e-02, -1.54900e-02,  1.17000e-02,  1.22200e-03, -1.84100e-03, -6.22600e-04],
                           [-1.99800e-01,  3.17500e-01,  2.68600e-04, -3.43800e-02,  3.36800e-03,  4.96100e-03,  3.72000e-04, -5.68200e-04],
                           [-4.56700e-02,  1.19700e-01,  3.22800e-02, -2.02400e-02, -5.95200e-03,  2.82500e-03,  1.28000e-03, -2.97300e-05],
                           [ 4.82600e-03,  4.79500e-02,  2.72900e-02, -2.79000e-03, -7.30700e-03, -3.62600e-04,  1.08600e-03,  2.35500e-04],
                           [-1.62800e-02,  9.47300e-03,  1.23700e-02,  3.80900e-03, -2.86700e-03, -1.63500e-03,  3.85100e-04,  2.57300e-04],
                           [-3.21500e-02,  5.94200e-04,  6.70000e-03,  1.85500e-03, -2.81000e-04, -1.15100e-03, -3.85900e-05,  2.27800e-04],
                           [-1.17000e-02, -1.61200e-02,  1.85800e-03,  1.83100e-03,  1.28700e-03, -4.89300e-04, -4.95100e-04,  7.94100e-05],
                           [-2.86800e-02,  7.34400e-03,  6.60100e-03, -4.29600e-04, -7.44200e-04, -1.32200e-04, -1.06600e-04,  4.63100e-05]])

# Reaction 6
chebyshev_reaction('bQOOH[O] (+ M) <=> bQOOHg (+ M)',
                   Tmin=180.0, Tmax=1500.0,
                   Pmin=(0.01, 'atm'), Pmax=(98.692, 'atm'),
                   coeffs=[[ 4.26000e-01, -6.93200e-02, -4.00600e-01, -3.57000e-02,  1.72300e-02,  6.10000e-03, -1.89300e-03, -1.18800e-03],
                           [ 4.01000e+00,  1.32900e+00, -1.02600e-01, -1.73200e-02, -1.91000e-02, -2.18100e-03,  3.78500e-03,  1.02200e-03],
                           [ 6.49100e-01,  7.59500e-01, -4.97100e-02, -1.00600e-02, -8.99300e-04, -3.85400e-03, -6.31900e-04,  8.90000e-04],
                           [-1.26100e-01,  3.53700e-01,  7.53100e-04, -1.73400e-02,  4.66600e-03,  3.84200e-04, -1.67300e-03, -2.77000e-04],
                           [-9.61500e-02,  1.41700e-01,  2.11100e-02, -1.54200e-02,  2.44900e-04,  2.99100e-03, -2.86900e-04, -7.34700e-04],
                           [-6.67000e-03,  4.02500e-02,  1.56100e-02, -3.93600e-03, -2.90700e-03,  1.53100e-03,  6.49300e-04, -2.88000e-04],
                           [-2.00800e-02,  2.65400e-02,  9.24900e-03, -9.74500e-04, -3.62000e-03,  3.01100e-04,  1.08300e-03,  1.90800e-05],
                           [-2.82400e-02,  9.82000e-04,  4.39400e-03,  2.56100e-03, -1.29000e-03, -1.24100e-03,  3.82700e-04,  3.73000e-04],
                           [-3.17600e-02,  4.06500e-03,  3.83700e-03,  6.61000e-05, -2.34700e-04, -6.46300e-04, -1.27600e-05,  2.05000e-04],
                           [-9.39400e-03, -8.68100e-03,  1.83700e-03,  1.33100e-03,  5.77300e-04, -5.47700e-04, -3.54400e-04,  1.29000e-04]])

# Reaction 7
chebyshev_reaction('O2 + bR (+ M) <=> bQOOHg (+ M)',
                   Tmin=180.0, Tmax=1500.0,
                   Pmin=(0.01, 'atm'), Pmax=(98.692, 'atm'),
                   coeffs=[[ 4.92000e+00, -1.21200e+00, -2.25700e-01,  1.98400e-02, -9.70900e-04,  1.34800e-03,  7.19600e-05, -1.13500e-04],
                           [ 1.97900e+00,  1.18200e+00, -2.55700e-01, -2.59300e-02,  1.39400e-02, -4.15100e-05,  2.00700e-04, -3.63000e-06],
                           [ 4.47000e-01,  6.52400e-01, -5.79700e-02, -5.24700e-02,  6.73400e-03,  3.77900e-03, -5.07100e-04, -1.20000e-05],
                           [ 4.02600e-02,  2.86500e-01,  2.91900e-02, -3.60400e-02, -5.38300e-03,  4.28600e-03,  5.14800e-04, -3.22900e-04],
                           [ 2.51300e-02,  1.08500e-01,  3.78100e-02, -1.22900e-02, -8.76200e-03,  1.18900e-03,  1.39500e-03, -1.44700e-04],
                           [ 1.88900e-02,  3.73200e-02,  2.35200e-02,  2.15400e-04, -5.51600e-03, -1.31300e-03,  9.96100e-04,  2.74600e-04],
                           [-1.09600e-02,  8.31900e-03,  1.24100e-02,  2.94700e-03, -1.76900e-03, -1.66100e-03,  1.10100e-04,  3.95800e-04],
                           [-2.65400e-02, -5.45700e-03,  7.41800e-03,  2.13000e-03,  7.65700e-06, -9.03100e-04, -3.75000e-04,  2.07200e-04],
                           [-2.07000e-02, -9.95800e-03,  4.57800e-03,  1.31200e-03,  2.98900e-04, -2.08500e-04, -3.66600e-04, -1.11300e-05],
                           [-8.84800e-03, -7.88700e-03,  1.98000e-03,  9.90900e-04,  1.54000e-04,  7.86100e-05, -1.75700e-04, -1.01300e-04]])
#  bRO2(+M) <=> bQOOHa(+M)                             1.000e+00 0.000     0.000
#      TCHEB/ 180.000   1500.000 /
#      PCHEB/ 0.010     98.692   /
#      CHEB/ 10 8/
#      CHEB/ -5.605e+00   1.236e+00    -1.610e-01   -2.568e-02   2.387e-03   /
#      CHEB/ 5.948e-04    -4.343e-05   3.125e-05    9.853e+00    1.224e+00   /
#      CHEB/ -6.706e-02   -1.588e-02   -1.138e-02   -6.544e-04   7.813e-04   /
#      CHEB/ 1.707e-04    1.056e+00    1.414e-01    3.411e-02    2.163e-02   /
#      CHEB/ -3.029e-03   -3.463e-03   -8.877e-04   1.894e-04    -5.999e-02  /
#      CHEB/ 3.191e-02    -2.919e-02   1.268e-02    9.408e-03    -6.239e-04  /
#      CHEB/ -1.411e-03   -3.961e-04   -2.313e-01   1.368e-01    -4.497e-02  /
#      CHEB/ -4.979e-03   5.518e-03    2.108e-03    -1.991e-05   -4.120e-04  /
#      CHEB/ -1.066e-01   1.024e-01    -1.128e-02   -8.909e-03   -8.851e-04  /
#      CHEB/ 1.483e-03    6.463e-04    3.111e-05    -1.097e-02   2.265e-02   /
#      CHEB/ 7.641e-03    -4.515e-03   -1.217e-03   4.473e-06    2.406e-04   /
#      CHEB/ 1.788e-04    3.664e-04    -9.595e-04   4.240e-03    -1.561e-03  /
#      CHEB/ 2.851e-04    -1.663e-04   -1.343e-04   2.073e-05    -1.050e-02  /
#      CHEB/ 4.935e-03    9.298e-04    -7.693e-04   -1.238e-04   1.445e-04   /
#      CHEB/ -9.103e-06   -5.596e-05   -1.336e-02   9.905e-03    2.845e-03   /
#      CHEB/ -1.727e-03   -7.552e-04   3.715e-04    1.095e-04    -3.945e-05  /
#  bQOOHg(+M) <=> bQOOHa(+M)                           1.000e+00 0.000     0.000
#      TCHEB/ 180.000   1500.000 /
#      PCHEB/ 0.010     98.692   /
#      CHEB/ 10 8/
#      CHEB/ -5.928e+00   2.920e-01    -3.428e-01   -4.849e-02   6.658e-04   /
#      CHEB/ 4.589e-03    1.173e-03    -2.894e-04   7.730e+00    1.403e+00   /
#      CHEB/ -1.236e-01   9.276e-03    -5.626e-03   -5.991e-03   -5.505e-04  /
#      CHEB/ 8.047e-04    9.645e-01    7.130e-01    -8.053e-02   -1.549e-02  /
#      CHEB/ 1.170e-02    1.222e-03    -1.841e-03   -6.226e-04   -2.356e-01  /
#      CHEB/ 3.175e-01    2.686e-04    -3.438e-02   3.368e-03    4.961e-03   /
#      CHEB/ 3.720e-04    -5.682e-04   -5.624e-02   1.197e-01    3.228e-02   /
#      CHEB/ -2.024e-02   -5.952e-03   2.825e-03    1.280e-03    -2.973e-05  /
#      CHEB/ 2.199e-03    4.795e-02    2.729e-02    -2.790e-03   -7.307e-03  /
#      CHEB/ -3.626e-04   1.086e-03    2.355e-04    -1.705e-02   9.473e-03   /
#      CHEB/ 1.237e-02    3.809e-03    -2.867e-03   -1.635e-03   3.851e-04   /
#      CHEB/ 2.573e-04    -3.242e-02   5.942e-04    6.700e-03    1.855e-03   /
#      CHEB/ -2.810e-04   -1.151e-03   -3.859e-05   2.278e-04    -1.173e-02  /
#      CHEB/ -1.612e-02   1.858e-03    1.831e-03    1.287e-03    -4.893e-04  /
#      CHEB/ -4.951e-04   7.941e-05    -2.862e-02   7.344e-03    6.601e-03   /
#      CHEB/ -4.296e-04   -7.442e-04   -1.322e-04   -1.066e-04   4.631e-05   /

# Reaction 8
chebyshev_reaction('bQOOH[O] (+ M) <=> bQOOHa (+ M)',
                   Tmin=180.0, Tmax=1500.0,
                   Pmin=(0.01, 'atm'), Pmax=(98.692, 'atm'),
                   coeffs=[[ 7.13600e-01,  1.21700e+00, -4.93000e-01, -9.43200e-02,  1.21900e-02,  1.09500e-02, -1.77500e-04, -1.45600e-03],
                           [ 3.40500e+00,  9.62200e-01,  1.50000e-01,  7.86100e-03, -3.25300e-02, -1.00100e-02,  2.46500e-03,  1.80400e-03],
                           [ 3.31900e-01,  4.56000e-01,  3.72700e-02,  2.55300e-02, -3.78000e-03, -7.13400e-03, -1.50000e-03,  7.94300e-04],
                           [-1.53600e-01,  1.90200e-01, -2.26000e-02,  1.14000e-02,  9.02800e-03, -4.48200e-04, -1.99600e-03, -5.91800e-04],
                           [-5.40100e-02,  1.10700e-01, -1.70500e-02, -3.70200e-03,  5.34600e-03,  1.86200e-03, -3.69900e-04, -5.54900e-04],
                           [-7.38400e-04,  5.49200e-02, -2.74700e-03, -4.93500e-03,  1.68000e-03,  8.81000e-04,  6.28800e-05, -6.26600e-05],
                           [-1.76900e-02,  2.77700e-02,  2.43600e-03, -5.99400e-03,  1.07400e-04,  1.27700e-03,  2.56100e-04, -1.74500e-04],
                           [-3.10100e-02,  2.35200e-03,  5.25700e-03, -2.10800e-03, -8.40100e-04,  2.57400e-04,  2.42000e-04,  7.61000e-05],
                           [-1.87800e-02, -4.35800e-03,  2.58900e-03, -1.70700e-03, -4.59700e-04,  4.92700e-04,  1.79300e-04, -7.01000e-05],
                           [-2.63600e-02,  5.45300e-03,  7.84800e-03,  1.89300e-04, -1.84100e-03, -6.43600e-04,  2.38800e-04,  2.44600e-04]])

# Reaction 9
chebyshev_reaction('O2 + bR (+ M) <=> bQOOHa (+ M)',
                   Tmin=180.0, Tmax=1500.0,
                   Pmin=(0.01, 'atm'), Pmax=(98.692, 'atm'),
                   coeffs=[[ 4.98900e+00,  6.81900e-02, -2.07900e-01, -4.95800e-02, -1.18400e-02,  8.99300e-04,  1.88900e-03,  6.98600e-04],
                           [ 1.49600e+00,  6.09800e-01, -6.17300e-02,  2.33500e-02,  5.50800e-03, -2.46900e-03, -1.99200e-03, -5.23300e-04],
                           [ 2.13100e-01,  4.15100e-01, -2.20300e-02,  1.65200e-03,  5.56400e-03, -1.14800e-03, -1.17900e-03, -2.89900e-04],
                           [ 4.94400e-02,  1.78000e-01, -1.70500e-02, -1.62400e-02,  5.14800e-03,  2.61900e-03,  2.19200e-04, -2.50100e-04],
                           [ 5.03200e-02,  8.07600e-02,  4.35600e-03, -1.40800e-02,  3.75100e-04,  2.04000e-03,  3.75000e-04, -5.69000e-05],
                           [ 1.22100e-02,  4.47100e-02,  1.55100e-02, -6.22500e-03, -2.72600e-03,  4.67300e-04,  2.62600e-04,  7.03000e-05],
                           [-4.80400e-03,  9.63000e-03,  1.00400e-02, -2.01700e-03, -2.20500e-03,  1.22100e-04,  2.90200e-04,  3.87600e-05],
                           [-2.80400e-02, -4.03400e-03,  8.61000e-03,  5.87800e-04, -1.23600e-03, -2.36200e-04,  1.02400e-04,  1.69100e-05],
                           [-6.79000e-03, -1.57200e-02,  2.36300e-03,  1.29600e-04, -5.82500e-04,  1.55800e-05,  1.63100e-04,  5.07800e-05],
                           [-2.99400e-02,  2.96500e-03,  7.92800e-03,  2.30900e-03, -8.60300e-04, -7.15300e-04, -1.64300e-04,  6.61600e-05]])
#  bRO2(+M) <=> bQOOH[O](+M)                           1.000e+00 0.000     0.000
#      TCHEB/ 180.000   1500.000 /
#      PCHEB/ 0.010     98.692   /
#      CHEB/ 10 8/
#      CHEB/ -4.059e+00   1.387e+00    -3.016e-01   -3.376e-02   1.745e-02   /
#      CHEB/ 5.407e-03    -2.027e-03   -9.991e-04   1.080e+01    5.223e-01   /
#      CHEB/ 5.387e-02    -2.585e-02   -2.187e-02   1.102e-03    4.031e-03   /
#      CHEB/ 3.062e-04    -3.782e-01   2.288e-01    2.100e-02    1.241e-02   /
#      CHEB/ -8.561e-03   -5.637e-03   3.905e-04    1.321e-03    -2.254e-01  /
#      CHEB/ 1.416e-01    -1.558e-03   1.123e-02    1.752e-06    -3.351e-03  /
#      CHEB/ -1.249e-03   4.033e-04    -1.426e-01   1.040e-01    -6.834e-03  /
#      CHEB/ 3.361e-03    1.754e-03    -5.325e-04   -8.389e-04   -2.742e-04  /
#      CHEB/ -6.648e-02   4.917e-02    -7.688e-03   2.706e-03    2.221e-03   /
#      CHEB/ -2.451e-04   -4.885e-04   -1.754e-04   -4.149e-02   3.686e-02   /
#      CHEB/ -5.548e-03   -1.874e-03   1.680e-03    7.171e-04    -1.543e-04  /
#      CHEB/ -2.433e-04   -1.129e-02   9.512e-03    -2.923e-03   -6.919e-04  /
#      CHEB/ 1.016e-03    2.970e-04    -2.634e-05   -5.477e-05   -1.209e-02  /
#      CHEB/ 1.260e-02    -5.890e-04   -2.683e-03   2.707e-04    6.268e-04   /
#      CHEB/ 1.025e-04    -8.710e-05   1.256e-03    -2.140e-03   6.486e-04   /
#      CHEB/ -3.984e-04   -8.195e-05   5.886e-05    7.168e-05    4.056e-05   /
#  bQOOHg(+M) <=> bQOOH[O](+M)                         1.000e+00 0.000     0.000
#      TCHEB/ 180.000   1500.000 /
#      PCHEB/ 0.010     98.692   /
#      CHEB/ 10 8/
#      CHEB/ -3.455e+00   -6.932e-02   -4.006e-01   -3.570e-02   1.723e-02   /
#      CHEB/ 6.100e-03    -1.893e-03   -1.188e-03   6.385e+00    1.329e+00   /
#      CHEB/ -1.026e-01   -1.732e-02   -1.910e-02   -2.181e-03   3.785e-03   /
#      CHEB/ 1.022e-03    4.975e-01    7.595e-01    -4.971e-02   -1.006e-02  /
#      CHEB/ -8.993e-04   -3.854e-03   -6.319e-04   8.900e-04    -1.844e-01  /