units(length='cm', time='s', quantity='mol', act_energy='kcal/mol')

ideal_gas(name='gas',
          elements="H D T C Ci O Oi N Ne Ar He Si S F Cl Br I X",
          species="""OH             bQOOH[O]       acetone
                     H2O            balkoxyketone  ibutenol
                     trisub_epoxy   bQOOHg         CH2O
                     galkene        O2             bR
                     bQOOHa         bRO2           disub_epoxy
                     HO2""",
          reactions='all',
          initial_state=state(temperature=300.0, pressure=OneAtm))

#-------------------------------------------------------------------------------
# Element data
#-------------------------------------------------------------------------------

element(symbol='Ci', atomic_mass=13.003)
element(symbol='D', atomic_mass=2.014)
element(symbol='Oi', atomic_mass=18.0)
element(symbol='T', atomic_mass=3.016)
element(symbol='X', atomic_mass=195.083)
#-------------------------------------------------------------------------------
# Species data
#-------------------------------------------------------------------------------

species(name='OH',
        atoms='H:1 O:1',
        thermo=(NASA([10.00, 984.14],
                     [ 3.49686242E+00,  1.83973160E-04, -9.97634499E-07,
                       1.56942783E-09, -6.10128175E-13,  3.41673934E+03,
                       1.48093120E+00]),
                NASA([984.14, 3000.00],
                     [ 3.45221464E+00, -2.95124034E-04,  7.39418622E-07,
                      -2.89309866E-10,  3.53041498E-14,  3.45751599E+03,
                       1.85813897E+00])))

species(name='bQOOH[O]',
        atoms='C:4 H:9 O:3',
        thermo=(NASA([10.00, 338.69],
                     [ 3.60915854E+00,  3.39069566E-02,  2.22227265E-04,
                      -8.23527342E-07,  8.56246333E-10, -2.50016956E+04,
                       1.23284605E+01]),
                NASA([338.69, 3000.00],
                     [ 5.03198881E+00,  5.46235886E-02, -3.56935806E-05,
                       1.12371751E-08, -1.35390171E-12, -2.53132783E+04,
                       3.82760723E+00])))

species(name='acetone',
        atoms='C:3 H:6 O:1',
        thermo=(NASA([10.00, 414.35],
                     [ 3.73496166E+00,  3.05743218E-02, -1.26253585E-04,
                       3.66080978E-07, -3.31430437E-10, -2.75840351E+04,
                       8.24936012E+00]),
                NASA([414.35, 3000.00],
                     [ 1.70010292E-01,  3.28431468E-02, -1.80960132E-05,
                       4.82960690E-09, -5.02388538E-13, -2.70126520E+04,
                       2.56372653E+01])))

species(name='H2O',
        atoms='H:2 O:1',
        thermo=(NASA([10.00, 773.84],
                     [ 4.00473541E+00, -2.39729134E-04,  8.11862955E-07,
                       1.47891862E-09, -1.19783539E-12, -3.03533807E+04,
                      -9.96254147E-02]),
                NASA([773.84, 3000.00],
                     [ 3.52133374E+00,  1.05377009E-03,  6.40722099E-07,
                      -3.86240235E-10,  5.49243294E-14, -3.02424794E+04,
                       2.34173094E+00])))

species(name='balkoxyketone',
        atoms='C:4 H:7 O:2',
        thermo=(NASA([10.00, 269.93],
                     [ 3.81931151E+00,  1.68519318E-02,  2.42742224E-04,
                      -9.64821161E-07,  1.18509335E-09, -1.98590225E+04,
                       1.20521854E+01]),
                NASA([269.93, 3000.00],
                     [ 3.57555944E+00,  4.28868089E-02, -2.65390705E-05,
                       7.99659117E-09, -9.32983470E-13, -1.99275507E+04,
                       1.13957990E+01])))

species(name='ibutenol',
        atoms='C:4 H:8 O:1',
        thermo=(NASA([10.00, 135.97],
                     [ 3.95714996E+00,  5.72646980E-03,  4.63611760E-04,
                      -3.04137514E-06,  6.85019471E-09, -2.23298023E+04,
                       8.21931848E+00]),
                NASA([135.97, 3000.00],
                     [ 3.32467612E+00,  3.69033556E-02, -1.89960416E-05,
                       4.73417677E-09, -4.59705291E-13, -2.23242236E+04,
                       9.58133237E+00])))

species(name='trisub_epoxy',
        atoms='C:4 H:8 O:2',
        thermo=(NASA([10.00, 209.19],
                     [ 3.75295042E+00,  2.37546930E-02,  1.26610110E-04,
                      -4.78364365E-07,  5.79468168E-10, -4.16152117E+04,
                       1.12739684E+01]),
                NASA([209.19, 3000.00],
                     [ 2.64185254E+00,  4.50006531E-02, -2.57361066E-05,
                       7.15266054E-09, -7.72980731E-13, -4.15687261E+04,
                       1.48960343E+01])))

species(name='bQOOHg',
        atoms='C:4 H:9 O:3',
        thermo=(NASA([10.00, 441.09],
                     [ 3.56595280E+00,  3.36073467E-02,  2.03462772E-04,
                      -5.98977617E-07,  4.83271168E-10, -2.38571340E+04,
                       1.33537891E+01]),
                NASA([441.09, 3000.00],
                     [ 6.09031192E+00,  5.80517622E-02, -4.06392697E-05,
                       1.32574026E-08, -1.62501077E-12, -2.45403194E+04,
                      -1.97849715E+00])))

species(name='CH2O',
        atoms='C:1 H:2 O:1',
        thermo=(NASA([10.00, 601.31],
                     [ 4.03190845E+00, -1.93233367E-03,  8.89743345E-06,
                       2.98105926E-09, -7.90813886E-12, -1.42276270E+04,
                       3.47574660E+00]),
                NASA([601.31, 3000.00],
                     [ 1.40134195E+00,  9.48858016E-03, -4.43088317E-06,
                       9.48452194E-10, -7.43790219E-14, -1.38013869E+04,
                       1.57423780E+01])))

species(name='galkene',
        atoms='C:4 H:8 O:1',
        thermo=(NASA([10.00, 383.47],
                     [ 3.84035604E+00,  1.20378740E-02,  1.87486319E-04,
                      -5.44759148E-07,  4.80711015E-10, -2.11817979E+04,
                       1.02570291E+01]),
                NASA([383.47, 3000.00],
                     [ 4.00413385E+00,  3.79025144E-02, -2.15435710E-05,
                       6.15213311E-09, -6.97446345E-13, -2.13970872E+04,
                       6.98052628E+00])))

species(name='O2',
        atoms='O:2',
        thermo=(NASA([10.00, 605.96],
                     [ 3.50743498E+00, -4.43860349E-04,  1.45938058E-06,
                       1.61509333E-09, -2.32050052E-12, -9.24756224E+02,
                       4.72183634E+00]),
                NASA([605.96, 3000.00],
                     [ 2.87462882E+00,  2.17840991E-03, -1.18262921E-06,
                       2.86910493E-10, -2.53297146E-14, -8.19517838E+02,
                       7.69331810E+00])))

species(name='bR',
        atoms='C:4 H:9 O:1',
        thermo=(NASA([10.00, 483.43],
                     [ 3.38164846E+00,  5.97142637E-02, -1.58320095E-04,
                       3.04908893E-07, -2.13091806E-10, -1.26975301E+04,
                       1.09226843E+01]),
                NASA([483.43, 3000.00],
                     [ 2.33428824E+00,  4.22094427E-02, -2.28029290E-05,
                       6.04614564E-09, -6.30240159E-13, -1.22904481E+04,
                       1.83772893E+01])))

species(name='bQOOHa',
        atoms='C:4 H:9 O:3',
        thermo=(NASA([10.00, 390.53],
                     [ 3.54969236E+00,  3.76592474E-02,  1.76622653E-04,
                      -5.98063750E-07,  5.45069236E-10, -2.78656125E+04,
                       1.31518761E+01]),
                NASA([390.53, 3000.00],
                     [ 5.33564209E+00,  5.64935715E-02, -3.83214298E-05,
                       1.22990604E-08, -1.49549987E-12, -2.82882225E+04,
                       2.59015836E+00])))

species(name='bRO2',
        atoms='C:4 H:9 O:3',
        thermo=(NASA([10.00, 461.39],
                     [ 3.53964713E+00,  3.88723795E-02,  9.57420148E-05,
                      -2.80380499E-07,  2.09647462E-10, -3.28904652E+04,
                       1.18803618E+01]),
                NASA([461.39, 3000.00],
                     [ 3.47201723E+00,  6.00510247E-02, -4.00567321E-05,
                       1.25663813E-08, -1.49496682E-12, -3.31034120E+04,
                       9.77903975E+00])))

species(name='disub_epoxy',
        atoms='C:4 H:8 O:2',
        thermo=(NASA([10.00, 549.41],
                     [ 3.89863211E+00,  5.97532637E-03,  1.66685676E-04,
                      -3.10743768E-07,  1.78330192E-10, -3.57599208E+04,
                       1.13847308E+01]),
                NASA([549.41, 3000.00],
                     [-6.40277648E-01,  6.05960003E-02, -4.13427220E-05,
                       1.31555461E-08, -1.57685017E-12, -3.55868039E+04,
                       2.76005436E+01])))

species(name='HO2',
        atoms='H:1 O:2',
        thermo=(NASA([10.00, 891.11],
                     [ 4.02887004E+00, -1.75769289E-03,  1.08726004E-05,
                      -1.13812972E-08,  3.90113097E-12,  4.95165001E+02,
                       4.69302008E+00]),
                NASA([891.11, 3000.00],
                     [ 3.06571044E+00,  4.28505005E-03, -2.19325920E-06,
                       5.58882699E-10, -5.61246669E-14,  5.98557610E+02,
                       8.84564156E+00])))

#-------------------------------------------------------------------------------
# Reaction data
#-------------------------------------------------------------------------------

# Reaction 1
chebyshev_reaction('bQOOHg (+ M) <=> bRO2 (+ M)',
                   Tmin=180.0, Tmax=1500.0,
                   Pmin=(0.01, 'atm'), Pmax=(98.692, 'atm'),
                   coeffs=[[-1.83200e+00,  1.57600e+00, -7.35900e-02, -3.48600e-02, -1.58000e-03,  4.12700e-03,  5.91800e-04, -5.28500e-04],
                           [ 5.14800e-01,  1.83400e+00,  5.16700e-02, -2.94500e-02, -9.35500e-03,  2.35200e-03,  1.10800e-03, -1.72700e-04],
                           [-2.10500e+00,  9.79900e-02,  1.18400e-01,  6.62200e-02, -7.40700e-03, -8.34600e-03,  7.67400e-05,  1.15600e-03],
                           [-1.60300e+00, -3.80500e-01, -4.42400e-04,  6.20700e-02,  1.00500e-02, -5.90000e-03, -1.63100e-03,  5.89500e-04],
                           [-9.01200e-01, -1.18800e-01, -6.90400e-02, -4.85600e-04,  1.25300e-02,  2.97000e-03, -8.52700e-04, -5.89300e-04],
                           [-4.21800e-01,  7.76800e-02, -4.52700e-02, -2.52800e-02,  3.38000e-03,  3.91400e-03,  4.04700e-04, -3.71500e-04],
                           [-2.18700e-01,  7.32900e-02, -5.30800e-03, -1.07600e-02, -1.60500e-03,  1.51500e-04,  9.04300e-05,  2.33600e-04],
                           [-1.11100e-01, -2.60000e-03,  1.70900e-02,  3.13700e-03, -8.41800e-04, -9.93600e-04, -4.42300e-04,  1.11300e-04],
                           [-6.09100e-02, -4.87400e-02,  1.22900e-02,  5.01900e-03,  9.10700e-04,  3.94200e-04, -2.33500e-04, -2.57000e-04],
                           [-3.39600e-02, -5.20700e-02, -5.23100e-03,  8.79200e-04,  1.21800e-03,  1.38600e-03,  2.48200e-04, -2.73900e-04]])

# Reaction 2
chebyshev_reaction('bQOOHa (+ M) <=> bRO2 (+ M)',
                   Tmin=180.0, Tmax=1500.0,
                   Pmin=(0.01, 'atm'), Pmax=(98.692, 'atm'),
                   coeffs=[[-2.16800e+00,  1.06100e+00, -7.38300e-02, -7.19400e-03,  3.09700e-03,  4.06200e-04, -3.14500e-04,  2.54700e-05],
                           [ 3.46600e+00,  1.55500e+00, -2.98300e-02, -1.65100e-02,  2.49200e-03,  5.90500e-04, -1.36400e-04, -2.78900e-05],
                           [-1.97400e+00,  5.05200e-01,  1.17600e-01,  3.29500e-03, -6.83600e-03,  3.34400e-04,  5.02300e-04, -9.40700e-05],
                           [-1.56200e+00, -1.42500e-01,  1.07400e-01,  2.75500e-02, -5.79500e-03, -1.16700e-03,  4.01800e-04,  9.26700e-06],
                           [-9.49600e-01, -2.43300e-01,  1.04700e-02,  2.46600e-02,  3.78700e-03, -1.35500e-03, -3.70600e-04,  8.05600e-05],
                           [-4.57100e-01, -1.29000e-01, -4.59200e-02,  4.69000e-03,  7.17300e-03,  4.12900e-04, -5.13900e-04, -4.86600e-05],
                           [-1.89400e-01, -3.98100e-02, -3.96400e-02, -7.75500e-03,  2.46100e-03,  1.32900e-03,  1.46000e-04, -9.74000e-05],
                           [-7.61400e-02, -6.68500e-03, -1.31400e-02, -7.30300e-03, -2.00700e-03,  4.98200e-04,  4.97400e-04,  5.51100e-05],
                           [-2.53100e-02,  9.61300e-04,  3.37300e-03, -1.91500e-03, -2.17300e-03, -4.84000e-04,  1.79800e-04,  1.49100e-04],
                           [-4.17600e-03, -2.61300e-03,  5.60900e-03,  2.32700e-03, -1.61900e-04, -5.71800e-04, -2.05700e-04,  5.59500e-05]])

# Reaction 3
chebyshev_reaction('bQOOH[O] (+ M) <=> bRO2 (+ M)',
                   Tmin=180.0, Tmax=1500.0,
                   Pmin=(0.01, 'atm'), Pmax=(98.692, 'atm'),
                   coeffs=[[ 4.80400e+00,  9.30900e-01, -1.03600e-01,  8.61700e-03,  1.29100e-03, -3.27600e-04,  1.22400e-04,  3.72500e-05],
                           [-9.16800e-01,  1.01400e+00,  3.18200e-02, -1.94600e-02,  1.55300e-03,  1.34100e-03, -6.14500e-05, -6.90200e-05],
                           [-2.53500e+00,  1.26800e-01,  9.29000e-02,  1.34400e-02, -4.75200e-03, -4.00300e-04,  4.94000e-04,  8.45300e-06],
                           [-1.46100e+00, -1.88600e-01,  8.29000e-03,  2.53900e-02,  3.52100e-03, -1.70400e-03, -3.28400e-04,  1.53500e-04],
                           [-7.55100e-01, -1.67100e-01, -3.91100e-02,  5.64200e-03,  6.36200e-03,  7.45200e-04, -5.45800e-04, -1.42700e-04],
                           [-3.64700e-01, -7.50600e-02, -2.71700e-02, -6.85100e-03,  7.31200e-04,  1.43200e-03,  2.99000e-04, -1.42600e-04],
                           [-1.68900e-01, -2.09600e-02, -2.57400e-03, -2.74100e-03, -2.69400e-03, -3.46100e-04,  4.54000e-04,  1.62900e-04],
                           [-8.21300e-02, -1.24600e-02,  6.30800e-03,  4.97300e-03, -7.40600e-04, -1.31100e-03, -1.82900e-04,  1.85200e-04],
                           [-4.25100e-02, -2.36500e-02,  5.17700e-04,  6.30000e-03,  2.29100e-03, -3.97600e-04, -4.95200e-04, -7.04600e-05],
                           [-2.01100e-02, -2.83500e-02, -9.34200e-03,  1.99600e-03,  2.84000e-03,  8.31900e-04, -1.47200e-04, -1.89000e-04]])

# Reaction 4
chebyshev_reaction('O2 + bR (+ M) <=> bRO2 (+ M)',
                   Tmin=180.0, Tmax=1500.0,
                   Pmin=(0.01, 'atm'), Pmax=(98.692, 'atm'),
                   coeffs=[[ 1.12100e+01,  5.40300e-01, -7.33100e-02,  9.72400e-03, -1.84700e-03,  2.87100e-04, -5.80600e-05,  4.84500e-06],
                           [-1.49600e+00,  9.40700e-01, -1.01100e-01,  7.82800e-03, -7.81700e-04, -1.42400e-04,  5.67300e-05, -2.11500e-05],
                           [-1.09500e+00,  6.33100e-01, -1.94800e-02, -6.19800e-03,  1.21100e-03, -3.48000e-04,  3.79700e-05, -1.02900e-06],
                           [-7.96200e-01,  3.23200e-01,  3.63500e-02, -8.08700e-03,  2.10800e-04, -3.03300e-05, -3.21100e-05,  8.97400e-06],
                           [-5.26600e-01,  1.05900e-01,  4.87200e-02, -1.17400e-03, -1.12600e-03,  3.52300e-05, -7.17200e-06,  8.06600e-07],
                           [-3.25600e-01, -9.46900e-03,  3.45800e-02,  5.08000e-03, -8.75500e-04, -1.80300e-04,  2.23600e-05,  4.45000e-06],
                           [-1.89200e-01, -5.38700e-02,  1.49100e-02,  6.55400e-03,  2.81800e-04, -2.39500e-04, -1.20000e-05,  1.23600e-05],
                           [-1.01400e-01, -6.01300e-02,  3.07200e-04,  4.63200e-03,  1.06500e-03, -3.83100e-05, -4.45000e-05,  4.27400e-06],
                           [-4.72300e-02, -4.97300e-02, -7.59700e-03,  1.95500e-03,  1.09200e-03,  1.98000e-04, -1.98300e-05, -1.09900e-05],
                           [-1.57200e-02, -3.40900e-02, -1.05000e-02, -9.98100e-05,  7.25300e-04,  2.84500e-04,  3.38300e-05, -1.44500e-05]])
#  bRO2(+M) <=> bQOOHg(+M)                             1.000e+00 0.000     0.000
#      TCHEB/ 180.000   1500.000 /
#      PCHEB/ 0.010     98.692   /
#      CHEB/ 10 8/
#      CHEB/ -1.308e+01   1.576e+00    -7.359e-02   -3.486e-02   -1.580e-03  /
#      CHEB/ 4.127e-03    5.918e-04    -5.285e-04   1.050e+01    1.834e+00   /
#      CHEB/ 5.167e-02    -2.945e-02   -9.355e-03   2.352e-03    1.108e-03   /
#      CHEB/ -1.727e-04   -1.959e+00   9.799e-02    1.184e-01    6.622e-02   /
#      CHEB/ -7.407e-03   -8.346e-03   7.674e-05    1.156e-03    -1.566e+00  /
#      CHEB/ -3.805e-01   -4.424e-04   6.207e-02    1.005e-02    -5.900e-03  /
#      CHEB/ -1.631e-03   5.895e-04    -8.954e-01   -1.188e-01   -6.904e-02  /
#      CHEB/ -4.856e-04   1.253e-02    2.970e-03    -8.527e-04   -5.893e-04  /
#      CHEB/ -4.219e-01   7.768e-02    -4.527e-02   -2.528e-02   3.380e-03   /
#      CHEB/ 3.914e-03    4.047e-04    -3.715e-04   -2.193e-01   7.329e-02   /
#      CHEB/ -5.308e-03   -1.076e-02   -1.605e-03   1.515e-04    9.043e-05   /
#      CHEB/ 2.336e-04    -1.116e-01   -2.600e-03   1.709e-02    3.137e-03   /
#      CHEB/ -8.418e-04   -9.936e-04   -4.423e-04   1.113e-04    -6.124e-02  /
#      CHEB/ -4.874e-02   1.229e-02    5.019e-03    9.107e-04    3.942e-04   /
#      CHEB/ -2.335e-04   -2.570e-04   -3.414e-02   -5.207e-02   -5.231e-03  /
#      CHEB/ 8.792e-04    1.218e-03    1.386e-03    2.482e-04    -2.739e-04  /

# Reaction 5
chebyshev_reaction('bQOOHa (+ M) <=> bQOOHg (+ M)',
                   Tmin=180.0, Tmax=1500.0,
                   Pmin=(0.01, 'atm'), Pmax=(98.692, 'atm'),
                   coeffs=[[-1.48500e+01,  1.72400e+00, -2.88000e-01, -1.06300e-01,  1.65700e-02,  1.11000e-02, -1.90700e-03, -1.46800e-03],
                           [ 6.84000e+00,  2.92800e+00,  2.36400e-01, -2.18200e-02, -3.42700e-02, -2.55500e-03,  4.28500e-03,  8.44900e-04],
                           [-2.75100e+00, -4.39800e-01,  3.21000e-01,  1.45000e-01, -1.89100e-02, -1.65500e-02,  2.90800e-04,  2.03100e-03],
                           [-2.00900e+00, -6.23000e-01, -1.47600e-02,  6.57500e-02,  2.36000e-02, -3.06400e-04, -3.03900e-03, -8.30200e-04],
                           [-1.02600e+00, -2.16300e-01, -1.48400e-01, -1.00000e-02,  1.93400e-02,  5.96000e-03, -2.89600e-04, -7.40500e-04],
                           [-4.41400e-01,  8.11600e-03, -1.00300e-01, -2.73300e-02,  1.25000e-03,  2.29600e-03,  1.15400e-03,  3.73300e-04],
                           [-1.48000e-01,  7.86400e-02, -1.52600e-02, -1.85300e-02, -6.69800e-03, -7.75400e-04,  4.05200e-04,  4.46700e-04],
                           [-4.14900e-02,  5.68700e-02,  3.03200e-02, -3.60900e-03, -4.15400e-03, -1.47800e-03, -5.53300e-04,  7.22700e-06],
                           [-2.14000e-02,  1.15300e-02,  2.96500e-02,  6.14600e-03,  4.81500e-04, -4.78900e-04, -6.29100e-04, -2.93400e-04],
                           [-2.53400e-02, -2.11100e-02,  9.07200e-03,  7.76500e-03,  2.44000e-03,  6.39500e-04, -9.39700e-05, -2.60000e-04]])

# Reaction 6
chebyshev_reaction('bQOOH[O] (+ M) <=> bQOOHg (+ M)',
                   Tmin=180.0, Tmax=1500.0,
                   Pmin=(0.01, 'atm'), Pmax=(98.692, 'atm'),
                   coeffs=[[-8.54900e+00,  1.53500e+00, -2.85500e-01, -8.89500e-02,  4.33600e-03,  1.07400e-02,  9.13900e-04, -1.37800e-03],
                           [ 2.33900e+00,  2.54600e+00,  2.77400e-01, -4.41400e-02, -3.21100e-02,  8.76700e-04,  3.88200e-03,  3.12200e-04],
                           [-2.79000e+00, -4.81500e-01,  1.76400e-01,  1.54500e-01,  1.91800e-03, -1.93000e-02, -3.38000e-03,  2.46600e-03],
                           [-1.92100e+00, -6.85400e-01, -9.50400e-02,  6.99200e-02,  2.94900e-02, -1.48100e-03, -3.41900e-03, -5.41600e-04],
                           [-9.61800e-01, -1.73400e-01, -1.45600e-01, -3.40500e-02,  1.39000e-02,  1.00600e-02,  1.10900e-03, -1.35900e-03],
                           [-4.22600e-01,  1.03800e-01, -6.64600e-02, -4.73400e-02, -4.08000e-03,  4.39300e-03,  1.79000e-03,  8.37200e-05],
                           [-1.75900e-01,  1.37000e-01,  1.53800e-02, -1.38600e-02, -9.29400e-03, -2.86900e-03,  1.45500e-04,  8.48100e-04],
                           [-8.11200e-02,  5.47400e-02,  4.75900e-02,  1.15300e-02, -3.07100e-03, -3.74200e-03, -1.14200e-03,  2.50800e-04],
                           [-4.97900e-02, -2.93900e-02,  2.91600e-02,  1.55000e-02,  4.13700e-03, -1.72500e-04, -1.13200e-03, -5.75600e-04],
                           [-3.55300e-02, -6.15000e-02, -4.34800e-03,  6.37000e-03,  5.29300e-03,  2.59700e-03, -6.84300e-05, -6.20400e-04]])

# Reaction 7
chebyshev_reaction('O2 + bR (+ M) <=> bQOOHg (+ M)',
                   Tmin=180.0, Tmax=1500.0,
                   Pmin=(0.01, 'atm'), Pmax=(98.692, 'atm'),
                   coeffs=[[ 1.50400e+00,  2.40400e+00, -3.96600e-01, -2.53900e-01,  3.97900e-02,  3.75000e-02, -7.62600e-03, -6.28500e-03],
                           [-8.55500e-01,  1.93500e-01,  5.87800e-01,  1.92200e-01, -1.07600e-01, -4.11100e-02,  1.85100e-02,  8.21900e-03],
                           [-1.42900e+00, -9.74000e-02,  7.62600e-02,  1.04800e-01,  2.94900e-02, -1.40800e-02, -9.99600e-03,  8.82500e-04],
                           [-1.07500e+00, -1.15600e-01, -1.01100e-01,  2.03500e-02,  3.57600e-02,  4.27200e-03, -4.28900e-03, -1.94200e-03],
                           [-5.39200e-01, -5.61400e-02, -6.50500e-02, -3.01800e-02,  8.72400e-03,  8.85100e-03,  1.14300e-03, -1.01800e-03],
                           [-1.96500e-01,  5.63900e-03, -4.42800e-03, -2.73400e-02, -7.59400e-03,  3.01000e-03,  2.01100e-03,  4.54500e-04],
                           [-5.98800e-02,  3.14200e-02,  2.90500e-02, -5.52500e-03, -9.96600e-03, -1.73000e-03,  8.78800e-04,  5.97800e-04],
                           [-2.86400e-02,  1.12400e-02,  2.66900e-02,  1.12000e-02, -3.37500e-03, -2.92400e-03, -5.85200e-04,  2.62900e-04],
                           [-3.03700e-02, -1.66000e-02,  1.03900e-02,  1.20500e-02,  1.95500e-03, -1.01900e-03, -7.40100e-04, -2.15200e-04],
                           [-2.29000e-02, -3.34100e-02, -7.78600e-03,  5.98800e-03,  3.73900e-03,  4.53400e-04, -3.42600e-04, -2.31600e-04]])
#  bRO2(+M) <=> bQOOHa(+M)                             1.000e+00 0.000     0.000
#      TCHEB/ 180.000   1500.000 /
#      PCHEB/ 0.010     98.692   /
#      CHEB/ 10 8/
#      CHEB/ -8.109e+00   1.061e+00    -7.383e-02   -7.194e-03   3.097e-03   /
#      CHEB/ 4.062e-04    -3.145e-04   2.547e-05    9.046e+00    1.555e+00   /
#      CHEB/ -2.983e-02   -1.651e-02   2.492e-03    5.905e-04    -1.364e-04  /
#      CHEB/ -2.789e-05   -1.919e+00   5.052e-01    1.176e-01    3.295e-03   /
#      CHEB/ -6.836e-03   3.344e-04    5.023e-04    -9.407e-05   -1.561e+00  /
#      CHEB/ -1.425e-01   1.074e-01    2.755e-02    -5.795e-03   -1.167e-03  /
#      CHEB/ 4.018e-04    9.267e-06    -9.545e-01   -2.433e-01   1.047e-02   /
#      CHEB/ 2.466e-02    3.787e-03    -1.355e-03   -3.706e-04   8.056e-05   /
#      CHEB/ -4.598e-01   -1.290e-01   -4.592e-02   4.690e-03    7.173e-03   /
#      CHEB/ 4.129e-04    -5.139e-04   -4.866e-05   -1.908e-01   -3.981e-02  /
#      CHEB/ -3.964e-02   -7.755e-03   2.461e-03    1.329e-03    1.460e-04   /
#      CHEB/ -9.740e-05   -7.686e-02   -6.685e-03   -1.314e-02   -7.303e-03  /
#      CHEB/ -2.007e-03   4.982e-04    4.974e-04    5.511e-05    -2.566e-02  /
#      CHEB/ 9.613e-04    3.373e-03    -1.915e-03   -2.173e-03   -4.840e-04  /
#      CHEB/ 1.798e-04    1.491e-04    -4.295e-03   -2.613e-03   5.609e-03   /
#      CHEB/ 2.327e-03    -1.619e-04   -5.718e-04   -2.057e-04   5.595e-05   /
#  bQOOHg(+M) <=> bQOOHa(+M)                           1.000e+00 0.000     0.000
#      TCHEB/ 180.000   1500.000 /
#      PCHEB/ 0.010     98.692   /
#      CHEB/ 10 8/
#      CHEB/ -9.534e+00   1.724e+00    -2.880e-01   -1.063e-01   1.657e-02   /
#      CHEB/ 1.110e-02    -1.907e-03   -1.468e-03   2.436e+00    2.928e+00   /
#      CHEB/ 2.364e-01    -2.182e-02   -3.427e-02   -2.555e-03   4.285e-03   /
#      CHEB/ 8.449e-04    -2.842e+00   -4.398e-01   3.210e-01    1.450e-01   /
#      CHEB/ -1.891e-02   -1.655e-02   2.908e-04    2.031e-03    -2.045e+00  /
#      CHEB/ -6.230e-01   -1.476e-02   6.575e-02    2.360e-02    -3.064e-04  /
#      CHEB/ -3.039e-03   -8.302e-04   -1.036e+00   -2.163e-01   -1.484e-01  /
#      CHEB/ -1.000e-02   1.934e-02    5.960e-03    -2.896e-04   -7.405e-04  /
#      CHEB/ -4.440e-01   8.116e-03    -1.003e-01   -2.733e-02   1.250e-03   /
#      CHEB/ 2.296e-03    1.154e-03    3.733e-04    -1.487e-01   7.864e-02   /
#      CHEB/ -1.526e-02   -1.853e-02   -6.698e-03   -7.754e-04   4.052e-04   /
#      CHEB/ 4.467e-04    -4.176e-02   5.687e-02    3.032e-02    -3.609e-03  /
#      CHEB/ -4.154e-03   -1.478e-03   -5.533e-04   7.227e-06    -2.143e-02  /
#      CHEB/ 1.153e-02    2.965e-02    6.146e-03    4.815e-04    -4.789e-04  /
#      CHEB/ -6.291e-04   -2.934e-04   -2.527e-02   -2.111e-02   9.072e-03   /
#      CHEB/ 7.765e-03    2.440e-03    6.395e-04    -9.397e-05   -2.600e-04  /

# Reaction 8
chebyshev_reaction('bQOOH[O] (+ M) <=> bQOOHa (+ M)',
                   Tmin=180.0, Tmax=1500.0,
                   Pmin=(0.01, 'atm'), Pmax=(98.692, 'atm'),
                   coeffs=[[-4.07000e+00,  7.21900e-01, -2.88400e-01, -3.13200e-02,  1.18400e-02,  2.80800e-03, -9.86300e-04, -2.34200e-04],
                           [ 1.46100e+00,  2.50800e+00,  1.34800e-01, -5.72000e-02, -1.25100e-02,  3.78600e-03,  1.77400e-03, -2.42600e-04],
                           [-2.80100e+00,  4.70500e-02,  2.44600e-01,  6.79900e-02, -1.40200e-02, -7.76600e-03,  8.43500e-04,  9.79800e-04],
                           [-1.96700e+00, -4.97700e-01,  2.43800e-02,  5.60600e-02,  1.37100e-02, -1.66800e-03, -2.45500e-03, -3.40600e-04],
                           [-1.02100e+00, -3.13900e-01, -8.42600e-02, -1.38400e-03,  1.32100e-02,  5.21400e-03, -5.25600e-04, -9.25800e-04],
                           [-4.49000e-01, -9.55100e-02, -6.71300e-02, -2.13800e-02, -8.46600e-04,  2.88100e-03,  1.59100e-03,  5.55800e-05],
                           [-1.65600e-01,  2.09100e-02, -1.70000e-02, -1.24100e-02, -6.92100e-03, -1.40300e-03,  9.96000e-04,  6.19200e-04],
                           [-4.74900e-02,  4.53000e-02,  1.40900e-02,  1.50400e-03, -3.78400e-03, -2.57800e-03, -4.37800e-04,  3.19000e-04],
                           [-1.16600e-02,  1.92100e-02,  1.82200e-02,  8.36400e-03,  1.31100e-03, -1.13600e-03, -9.04000e-04, -1.57000e-04],
                           [-1.35300e-02, -1.13400e-02,  6.40400e-03,  7.25000e-03,  3.60700e-03,  6.27000e-04, -4.10600e-04, -3.08700e-04]])

# Reaction 9
chebyshev_reaction('O2 + bR (+ M) <=> bQOOHa (+ M)',
                   Tmin=180.0, Tmax=1500.0,
                   Pmin=(0.01, 'atm'), Pmax=(98.692, 'atm'),
                   coeffs=[[ 5.20700e+00,  1.16600e+00, -4.69900e-01, -6.79100e-02,  3.95300e-02,  6.47000e-03, -6.30800e-03, -7.56900e-04],
                           [-1.54000e+00,  1.24600e+00,  3.89300e-01, -3.35200e-03, -6.23300e-02, -4.08800e-04,  1.03400e-02, -4.53400e-05],
                           [-1.50000e+00,  3.39400e-01,  1.35000e-01,  5.90100e-02,  3.82600e-03, -1.18200e-02, -2.63500e-03,  2.04700e-03],
                           [-1.11500e+00, -2.75000e-02,  2.12000e-02,  2.03400e-02,  1.70900e-02,  1.10600e-03, -2.90700e-03, -1.01800e-03],
                           [-6.47400e-01, -1.11000e-01, -9.21600e-03, -7.79600e-03,  6.19400e-03,  4.69900e-03,  5.75900e-04, -8.43200e-04],
                           [-3.03500e-01, -8.27900e-02, -8.89900e-03, -1.25300e-02, -2.76300e-03,  1.87100e-03,  1.48800e-03,  2.03000e-04],
                           [-1.09600e-01, -3.33000e-02,  1.07400e-03, -7.46700e-03, -4.99500e-03, -7.25300e-04,  6.84100e-04,  5.03000e-04],
                           [-2.38400e-02, -1.69600e-03,  1.08700e-02, -8.02400e-04, -3.69000e-03, -1.46800e-03, -9.98700e-05,  2.86700e-04],
                           [ 2.04000e-03,  3.36600e-03,  1.36100e-02,  5.03300e-03, -1.30300e-03, -1.22800e-03, -4.12200e-04,  5.29200e-05],
                           [-3.86500e-03, -6.25900e-03,  8.45600e-03,  7.55400e-03,  1.06400e-03, -5.31600e-04, -4.33400e-04, -9.47000e-05]])
#  bRO2(+M) <=> bQOOH[O](+M)                           1.000e+00 0.000     0.000
#      TCHEB/ 180.000   1500.000 /
#      PCHEB/ 0.010     98.692   /
#      CHEB/ 10 8/
#      CHEB/ -5.416e+00   9.309e-01    -1.036e-01   8.617e-03    1.291e-03   /
#      CHEB/ -3.276e-04   1.224e-04    3.725e-05    7.580e+00    1.014e+00   /
#      CHEB/ 3.182e-02    -1.946e-02   1.553e-03    1.341e-03    -6.145e-05  /
#      CHEB/ -6.902e-05   -2.541e+00   1.268e-01    9.290e-02    1.344e-02   /
#      CHEB/ -4.752e-03   -4.003e-04   4.940e-04    8.453e-06    -1.482e+00  /
#      CHEB/ -1.886e-01   8.290e-03    2.539e-02    3.521e-03    -1.704e-03  /
#      CHEB/ -3.284e-04   1.535e-04    -7.658e-01   -1.671e-01   -3.911e-02  /
#      CHEB/ 5.642e-03    6.362e-03    7.452e-04    -5.458e-04   -1.427e-04  /
#      CHEB/ -3.687e-01   -7.506e-02   -2.717e-02   -6.851e-03   7.312e-04   /
#      CHEB/ 1.432e-03    2.990e-04    -1.426e-04   -1.705e-01   -2.096e-02  /
#      CHEB/ -2.574e-03   -2.741e-03   -2.694e-03   -3.461e-04   4.540e-04   /
#      CHEB/ 1.629e-04    -8.276e-02   -1.246e-02   6.308e-03    4.973e-03   /
#      CHEB/ -7.406e-04   -1.311e-03   -1.829e-04   1.852e-04    -4.269e-02  /
#      CHEB/ -2.365e-02   5.177e-04    6.300e-03    2.291e-03    -3.976e-04  /
#      CHEB/ -4.952e-04   -7.046e-05   -2.011e-02   -2.835e-02   -9.342e-03  /
#      CHEB/ 1.996e-03    2.840e-03    8.319e-04    -1.472e-04   -1.890e-04  /
#  bQOOHg(+M) <=> bQOOH[O](+M)                         1.000e+00 0.000     0.000
#      TCHEB/ 180.000   1500.000 /
#      PCHEB/ 0.010     98.692   /
#      CHEB/ 10 8/
#      CHEB/ -7.517e+00   1.535e+00    -2.855e-01   -8.895e-02   4.336e-03   /
#      CHEB/ 1.074e-02    9.139e-04    -1.378e-03   8.527e-01    2.546e+00   /
#      CHEB/ 2.774e-01    -4.414e-02   -3.211e-02   8.767e-04    3.882e-03   /
#      CHEB/ 3.122e-04    -2.941e+00   -4.815e-01   1.764e-01    1.545e-01   /
#      CHEB/ 1.918e-03    -1.930e-02   -3.380e-03   2.466e-03    -1.979e+00  /