units(length='cm', time='s', quantity='mol', act_energy='kcal/mol')

ideal_gas(name='gas',
          elements="H D T C Ci O Oi N Ne Ar He Si S F Cl Br I X",
          species="""OH             bQOOH[O]       acetone
                     H2O            balkoxyketone  ibutenol
                     trisub_epoxy   bQOOHg         CH2O
                     galkene        O2             bR
                     bQOOHa         bRO2           disub_epoxy
                     HO2""",
          reactions='all',
          initial_state=state(temperature=300.0, pressure=OneAtm))

#-------------------------------------------------------------------------------
# Element data
#-------------------------------------------------------------------------------

element(symbol='Ci', atomic_mass=13.003)
element(symbol='D', atomic_mass=2.014)
element(symbol='Oi', atomic_mass=18.0)
element(symbol='T', atomic_mass=3.016)
element(symbol='X', atomic_mass=195.083)
#-------------------------------------------------------------------------------
# Species data
#-------------------------------------------------------------------------------

species(name='OH',
        atoms='H:1 O:1',
        thermo=(NASA([10.00, 984.14],
                     [ 3.49686242E+00,  1.83973160E-04, -9.97634499E-07,
                       1.56942783E-09, -6.10128175E-13,  3.41673934E+03,
                       1.48093120E+00]),
                NASA([984.14, 3000.00],
                     [ 3.45221464E+00, -2.95124034E-04,  7.39418622E-07,
                      -2.89309866E-10,  3.53041498E-14,  3.45751599E+03,
                       1.85813897E+00])))

species(name='bQOOH[O]',
        atoms='C:4 H:9 O:3',
        thermo=(NASA([10.00, 338.69],
                     [ 3.60915854E+00,  3.39069566E-02,  2.22227265E-04,
                      -8.23527342E-07,  8.56246333E-10, -2.38991456E+04,
                       1.23284605E+01]),
                NASA([338.69, 3000.00],
                     [ 5.03198881E+00,  5.46235886E-02, -3.56935806E-05,
                       1.12371751E-08, -1.35390171E-12, -2.42107283E+04,
                       3.82760723E+00])))

species(name='acetone',
        atoms='C:3 H:6 O:1',
        thermo=(NASA([10.00, 414.35],
                     [ 3.73496166E+00,  3.05743218E-02, -1.26253585E-04,
                       3.66080978E-07, -3.31430437E-10, -2.90776022E+04,
                       8.24936012E+00]),
                NASA([414.35, 3000.00],
                     [ 1.70010292E-01,  3.28431468E-02, -1.80960132E-05,
                       4.82960690E-09, -5.02388538E-13, -2.85062191E+04,
                       2.56372653E+01])))

species(name='H2O',
        atoms='H:2 O:1',
        thermo=(NASA([10.00, 773.84],
                     [ 4.00473541E+00, -2.39729134E-04,  8.11862955E-07,
                       1.47891862E-09, -1.19783539E-12, -3.03533807E+04,
                      -9.96254147E-02]),
                NASA([773.84, 3000.00],
                     [ 3.52133374E+00,  1.05377009E-03,  6.40722099E-07,
                      -3.86240235E-10,  5.49243294E-14, -3.02424794E+04,
                       2.34173094E+00])))

species(name='balkoxyketone',
        atoms='C:4 H:7 O:2',
        thermo=(NASA([10.00, 269.93],
                     [ 3.81931151E+00,  1.68519318E-02,  2.42742224E-04,
                      -9.64821161E-07,  1.18509335E-09, -2.14007694E+04,
                       1.20521854E+01]),
                NASA([269.93, 3000.00],
                     [ 3.57555944E+00,  4.28868089E-02, -2.65390705E-05,
                       7.99659117E-09, -9.32983470E-13, -2.14692975E+04,
                       1.13957990E+01])))

species(name='ibutenol',
        atoms='C:4 H:8 O:1',
        thermo=(NASA([10.00, 135.97],
                     [ 3.95714996E+00,  5.72646980E-03,  4.63611760E-04,
                      -3.04137514E-06,  6.85019471E-09, -2.27170041E+04,
                       8.21931848E+00]),
                NASA([135.97, 3000.00],
                     [ 3.32467612E+00,  3.69033556E-02, -1.89960416E-05,
                       4.73417677E-09, -4.59705291E-13, -2.27114254E+04,
                       9.58133237E+00])))

species(name='trisub_epoxy',
        atoms='C:4 H:8 O:2',
        thermo=(NASA([10.00, 209.19],
                     [ 3.75295042E+00,  2.37546930E-02,  1.26610110E-04,
                      -4.78364365E-07,  5.79468168E-10, -3.88597839E+04,
                       1.12739684E+01]),
                NASA([209.19, 3000.00],
                     [ 2.64185254E+00,  4.50006531E-02, -2.57361066E-05,
                       7.15266054E-09, -7.72980731E-13, -3.88132983E+04,
                       1.48960343E+01])))

species(name='bQOOHg',
        atoms='C:4 H:9 O:3',
        thermo=(NASA([10.00, 441.09],
                     [ 3.56595280E+00,  3.36073467E-02,  2.03462772E-04,
                      -5.98977617E-07,  4.83271168E-10, -2.37090473E+04,
                       1.33537891E+01]),
                NASA([441.09, 3000.00],
                     [ 6.09031192E+00,  5.80517622E-02, -4.06392697E-05,
                       1.32574026E-08, -1.62501077E-12, -2.43922327E+04,
                      -1.97849715E+00])))

species(name='CH2O',
        atoms='C:1 H:2 O:1',
        thermo=(NASA([10.00, 601.31],
                     [ 4.03190845E+00, -1.93233367E-03,  8.89743345E-06,
                       2.98105926E-09, -7.90813886E-12, -1.42276270E+04,
                       3.47574660E+00]),
                NASA([601.31, 3000.00],
                     [ 1.40134195E+00,  9.48858016E-03, -4.43088317E-06,
                       9.48452194E-10, -7.43790219E-14, -1.38013869E+04,
                       1.57423780E+01])))

species(name='galkene',
        atoms='C:4 H:8 O:1',
        thermo=(NASA([10.00, 383.47],
                     [ 3.84035604E+00,  1.20378740E-02,  1.87486319E-04,
                      -5.44759148E-07,  4.80711015E-10, -2.03071626E+04,
                       1.02570291E+01]),
                NASA([383.47, 3000.00],
                     [ 4.00413385E+00,  3.79025144E-02, -2.15435710E-05,
                       6.15213311E-09, -6.97446345E-13, -2.05224520E+04,
                       6.98052628E+00])))

species(name='O2',
        atoms='O:2',
        thermo=(NASA([10.00, 605.96],
                     [ 3.50743498E+00, -4.43860349E-04,  1.45938058E-06,
                       1.61509333E-09, -2.32050052E-12, -9.24756224E+02,
                       4.72183634E+00]),
                NASA([605.96, 3000.00],
                     [ 2.87462882E+00,  2.17840991E-03, -1.18262921E-06,
                       2.86910493E-10, -2.53297146E-14, -8.19517838E+02,
                       7.69331810E+00])))

species(name='bR',
        atoms='C:4 H:9 O:1',
        thermo=(NASA([10.00, 483.43],
                     [ 3.38164846E+00,  5.97142637E-02, -1.58320095E-04,
                       3.04908893E-07, -2.13091806E-10, -1.31869956E+04,
                       1.09226843E+01]),
                NASA([483.43, 3000.00],
                     [ 2.33428824E+00,  4.22094427E-02, -2.28029290E-05,
                       6.04614564E-09, -6.30240159E-13, -1.27799136E+04,
                       1.83772893E+01])))

species(name='bQOOHa',
        atoms='C:4 H:9 O:3',
        thermo=(NASA([10.00, 390.53],
                     [ 3.54969236E+00,  3.76592474E-02,  1.76622653E-04,
                      -5.98063750E-07,  5.45069236E-10, -2.57917289E+04,
                       1.31518761E+01]),
                NASA([390.53, 3000.00],
                     [ 5.33564209E+00,  5.64935715E-02, -3.83214298E-05,
                       1.22990604E-08, -1.49549987E-12, -2.62143389E+04,
                       2.59015836E+00])))

species(name='bRO2',
        atoms='C:4 H:9 O:3',
        thermo=(NASA([10.00, 461.39],
                     [ 3.53964713E+00,  3.88723795E-02,  9.57420148E-05,
                      -2.80380499E-07,  2.09647462E-10, -3.10846081E+04,
                       1.18803618E+01]),
                NASA([461.39, 3000.00],
                     [ 3.47201723E+00,  6.00510247E-02, -4.00567321E-05,
                       1.25663813E-08, -1.49496682E-12, -3.12975549E+04,
                       9.77903975E+00])))

species(name='disub_epoxy',
        atoms='C:4 H:8 O:2',
        thermo=(NASA([10.00, 549.41],
                     [ 3.89863211E+00,  5.97532637E-03,  1.66685676E-04,
                      -3.10743768E-07,  1.78330192E-10, -3.69787505E+04,
                       1.13847308E+01]),
                NASA([549.41, 3000.00],
                     [-6.40277648E-01,  6.05960003E-02, -4.13427220E-05,
                       1.31555461E-08, -1.57685017E-12, -3.68056336E+04,
                       2.76005436E+01])))

species(name='HO2',
        atoms='H:1 O:2',
        thermo=(NASA([10.00, 891.11],
                     [ 4.02887004E+00, -1.75769289E-03,  1.08726004E-05,
                      -1.13812972E-08,  3.90113097E-12,  4.95165001E+02,
                       4.69302008E+00]),
                NASA([891.11, 3000.00],
                     [ 3.06571044E+00,  4.28505005E-03, -2.19325920E-06,
                       5.58882699E-10, -5.61246669E-14,  5.98557610E+02,
                       8.84564156E+00])))

#-------------------------------------------------------------------------------
# Reaction data
#-------------------------------------------------------------------------------

# Reaction 1
chebyshev_reaction('bQOOHg (+ M) <=> bRO2 (+ M)',
                   Tmin=180.0, Tmax=1500.0,
                   Pmin=(0.01, 'atm'), Pmax=(98.692, 'atm'),
                   coeffs=[[ 8.25600e-01,  9.25000e-01, -7.81300e-02,  2.09300e-04,  4.19000e-03, -3.50200e-04, -1.02800e-04,  2.70100e-05],
                           [ 1.16000e+00,  1.34300e+00, -4.51500e-02, -6.15600e-03,  4.58400e-03,  1.87600e-04, -1.02600e-04, -2.11500e-05],
                           [-2.43300e+00,  4.04800e-01,  9.55700e-02,  2.44200e-03, -3.74500e-03,  1.05300e-03,  1.83700e-04, -9.69000e-05],
                           [-1.76000e+00, -1.70000e-01,  8.36800e-02,  2.18000e-02, -3.38300e-03, -4.26400e-04,  2.31700e-04,  3.23400e-05],
                           [-1.02300e+00, -2.64200e-01, -4.18900e-03,  1.98500e-02,  4.07200e-03, -9.91700e-04, -2.86800e-04,  1.17800e-04],
                           [-4.84300e-01, -1.64600e-01, -4.61600e-02,  2.69600e-04,  5.91900e-03,  7.49200e-04, -4.18800e-04, -6.09600e-05],
                           [-2.28200e-01, -6.90700e-02, -3.27600e-02, -1.16200e-02,  6.05700e-04,  1.65700e-03,  1.85900e-04, -1.57400e-04],
                           [-7.91300e-02, -1.85000e-02, -7.41800e-03, -8.75800e-03, -3.68300e-03,  3.40600e-04,  5.49100e-04,  3.50000e-05],
                           [-1.98100e-02,  3.10500e-04,  4.45900e-03, -4.19600e-04, -3.13000e-03, -1.14200e-03,  1.73200e-04,  1.98100e-04],
                           [ 3.49700e-03,  2.13600e-03,  3.35900e-03,  4.22200e-03, -1.64700e-04, -1.14300e-03, -3.39800e-04,  9.73900e-05]])

# Reaction 2
chebyshev_reaction('bQOOHa (+ M) <=> bRO2 (+ M)',
                   Tmin=180.0, Tmax=1500.0,
                   Pmin=(0.01, 'atm'), Pmax=(98.692, 'atm'),
                   coeffs=[[-2.89600e-01,  1.23300e+00, -5.08900e-02,  2.31200e-02, -8.07700e-03, -5.61400e-04,  2.22100e-05,  1.09900e-04],
                           [-1.32800e+00,  1.34600e+00,  1.50200e-01, -1.54800e-02, -1.85600e-03, -1.57000e-03,  5.04400e-06,  9.89500e-05],
                           [-2.67000e+00,  3.00200e-01,  7.15600e-02,  1.65300e-02,  3.02100e-03, -1.16600e-03, -2.03800e-04,  5.37900e-05],
                           [-1.50900e+00, -1.28700e-01, -5.83400e-02,  1.41300e-02,  9.71900e-03,  9.45700e-04, -4.72200e-04, -1.54200e-04],
                           [-8.05200e-01, -1.51800e-01, -7.53700e-02, -3.67000e-03,  4.60700e-03,  2.10000e-03,  1.25300e-04, -1.87600e-04],
                           [-3.90600e-01, -7.53800e-02, -2.41000e-02, -6.98200e-03, -1.71300e-03,  3.74600e-04,  2.88600e-04,  4.83100e-05],
                           [-1.82000e-01, -2.44900e-02,  1.05200e-02, -8.71200e-04, -1.74300e-03, -7.61500e-04, -1.71300e-04,  5.81000e-05],
                           [-1.19100e-01,  1.12600e-03,  3.13400e-03,  3.63800e-03,  3.71900e-04, -6.00700e-05, -2.52100e-04, -1.03800e-04],
                           [-5.78500e-02, -1.38400e-02, -4.58200e-03, -7.31100e-04,  1.11100e-03,  7.51200e-04,  8.33700e-05, -8.85500e-05],
                           [-6.45600e-03, -2.33100e-02, -5.61800e-03, -5.51500e-03,  1.37500e-04,  5.92500e-04,  2.70700e-04,  4.43200e-05]])

# Reaction 3
chebyshev_reaction('bQOOH[O] (+ M) <=> bRO2 (+ M)',
                   Tmin=180.0, Tmax=1500.0,
                   Pmin=(0.01, 'atm'), Pmax=(98.692, 'atm'),
                   coeffs=[[ 5.19300e+00,  1.19800e+00, -1.37300e-01,  9.51000e-03,  3.83100e-03, -4.90900e-04, -1.82000e-04,  9.82000e-05],
                           [-3.84700e+00,  9.80800e-01,  8.65000e-02, -2.39600e-02, -2.72500e-05,  2.20300e-03, -2.59700e-05, -1.87200e-04],
                           [-3.17300e+00, -1.06900e-01,  6.08300e-02,  2.88700e-02, -2.40400e-03, -2.11800e-03,  3.53800e-04,  2.78000e-04],
                           [-1.58100e+00, -2.29600e-01, -6.55900e-02,  1.19600e-02,  9.75800e-03, -1.21100e-04, -1.07300e-03,  1.83000e-05],
                           [-7.25100e-01, -5.86900e-02, -5.56100e-02, -1.69100e-02,  2.93800e-03,  2.96500e-03,  7.92800e-05, -3.88300e-04],
                           [-3.54900e-01, -1.91800e-03,  1.86900e-03, -6.68300e-03, -4.32200e-03, -2.58300e-04,  7.13700e-04,  1.84400e-04],
                           [-2.07000e-01, -3.11500e-02,  1.14200e-02,  8.65200e-03,  3.60800e-04, -1.89500e-03, -5.46600e-04,  2.49400e-04],
                           [-1.32300e-01, -4.43900e-02, -1.16400e-02,  4.06800e-03,  4.63900e-03,  7.07200e-04, -7.47300e-04, -3.11100e-04],
                           [-5.71600e-02, -3.56200e-02, -2.08600e-02, -5.95800e-03,  1.48400e-03,  1.88300e-03,  3.53500e-04, -2.60100e-04],
                           [ 5.75700e-03, -1.85700e-02, -1.02600e-02, -6.61000e-03, -2.54100e-03,  1.01300e-04,  5.98700e-04,  2.18900e-04]])

# Reaction 4
chebyshev_reaction('O2 + bR (+ M) <=> bRO2 (+ M)',
                   Tmin=180.0, Tmax=1500.0,
                   Pmin=(0.01, 'atm'), Pmax=(98.692, 'atm'),
                   coeffs=[[ 1.17300e+01,  6.03200e-01, -7.41000e-02,  1.22600e-02, -3.04200e-03,  6.14400e-04, -1.01800e-04,  1.27500e-05],
                           [-1.96700e+00,  9.72900e-01, -7.20600e-02,  3.23900e-03, -2.20000e-04, -2.36300e-04,  1.31300e-04, -3.34600e-05],
                           [-1.40700e+00,  5.52300e-01,  2.01900e-02, -8.69900e-03,  8.68700e-04, -2.20300e-04,  6.66700e-05, -8.89800e-06],
                           [-9.75100e-01,  2.06600e-01,  5.30700e-02, -3.53400e-03, -4.08600e-04, -1.21400e-04,  4.81600e-05, -5.81100e-06],
                           [-6.20300e-01,  1.42600e-02,  3.98800e-02,  3.62400e-03, -1.31000e-04, -2.75900e-04,  1.19900e-05,  8.61200e-06],
                           [-3.67100e-01, -6.11000e-02,  1.60400e-02,  4.99800e-03,  9.08700e-04, -1.66400e-04, -6.72900e-05,  9.59100e-06],
                           [-1.98400e-01, -7.37100e-02, -6.90700e-04,  2.71000e-03,  1.18300e-03,  1.13000e-04, -7.10500e-05, -1.00100e-05],
                           [-9.19500e-02, -5.92000e-02, -8.72100e-03,  3.62000e-04,  6.69700e-04,  2.39800e-04, -7.95100e-06, -1.69700e-05],
                           [-2.94600e-02, -3.66300e-02, -1.07500e-02, -1.03300e-03,  9.77200e-05,  1.53200e-04,  4.01700e-05, -4.22500e-06],
                           [ 2.92700e-03, -1.50100e-02, -9.38600e-03, -1.68600e-03, -2.27700e-04,  1.76100e-05,  4.00800e-05,  9.33200e-06]])
#  bRO2(+M) <=> bQOOHg(+M)                             1.000e+00 0.000     0.000
#      TCHEB/ 180.000   1500.000 /
#      PCHEB/ 0.010     98.692   /
#      CHEB/ 10 8/
#      CHEB/ -8.187e+00   9.250e-01    -7.813e-02   2.093e-04    4.190e-03   /
#      CHEB/ -3.502e-04   -1.028e-04   2.701e-05    9.383e+00    1.343e+00   /
#      CHEB/ -4.515e-02   -6.156e-03   4.584e-03    1.876e-04    -1.026e-04  /
#      CHEB/ -2.115e-05   -2.287e+00   4.048e-01    9.557e-02    2.442e-03   /
#      CHEB/ -3.745e-03   1.053e-03    1.837e-04    -9.690e-05   -1.722e+00  /
#      CHEB/ -1.700e-01   8.368e-02    2.180e-02    -3.383e-03   -4.264e-04  /
#      CHEB/ 2.317e-04    3.234e-05    -1.017e+00   -2.642e-01   -4.189e-03  /
#      CHEB/ 1.985e-02    4.072e-03    -9.917e-04   -2.868e-04   1.178e-04   /
#      CHEB/ -4.844e-01   -1.646e-01   -4.616e-02   2.696e-04    5.919e-03   /
#      CHEB/ 7.492e-04    -4.188e-04   -6.096e-05   -2.288e-01   -6.907e-02  /
#      CHEB/ -3.276e-02   -1.162e-02   6.057e-04    1.657e-03    1.859e-04   /
#      CHEB/ -1.574e-04   -7.959e-02   -1.850e-02   -7.418e-03   -8.758e-03  /
#      CHEB/ -3.683e-03   3.406e-04    5.491e-04    3.500e-05    -2.014e-02  /
#      CHEB/ 3.105e-04    4.459e-03    -4.196e-04   -3.130e-03   -1.142e-03  /
#      CHEB/ 1.732e-04    1.981e-04    3.311e-03    2.136e-03    3.359e-03   /
#      CHEB/ 4.222e-03    -1.647e-04   -1.143e-03   -3.398e-04   9.739e-05   /

# Reaction 5
chebyshev_reaction('bQOOHa (+ M) <=> bQOOHg (+ M)',
                   Tmin=180.0, Tmax=1500.0,
                   Pmin=(0.01, 'atm'), Pmax=(98.692, 'atm'),
                   coeffs=[[-1.10200e+01,  1.33200e+00, -1.16600e-01, -6.09300e-02, -6.92300e-03,  4.41700e-03,  1.37600e-05,  2.34600e-04],
                           [ 3.51300e+00,  2.05200e+00,  2.60300e-01,  5.86500e-02, -1.85700e-02, -1.21300e-02,  2.80900e-03,  8.38800e-04],
                           [-2.82100e+00, -2.95100e-02, -1.82700e-02,  5.99900e-02,  3.80800e-02,  1.56700e-03, -6.50500e-03, -1.01100e-03],
                           [-1.92600e+00, -4.21200e-01, -6.29400e-02,  2.37500e-03,  7.76200e-03,  7.23200e-03,  1.40500e-03, -7.99000e-04],
                           [-9.55500e-01, -2.31800e-01, -5.63700e-02, -1.22200e-02, -6.12300e-03,  8.53300e-04,  2.20800e-03,  4.93300e-04],
                           [-3.83200e-01, -8.30200e-02, -3.65500e-02, -6.43700e-03, -6.75300e-04, -2.47800e-03, -6.18100e-04,  5.42700e-04],
                           [-1.46300e-01,  7.53400e-03, -4.99500e-03, -6.42800e-03,  1.36500e-03, -1.62200e-04, -1.16800e-03, -2.48500e-04],
                           [-5.50300e-02,  2.71300e-02,  7.56400e-03, -6.20100e-04, -4.86400e-04,  7.85700e-04, -1.50700e-06, -3.62700e-04],
                           [-2.07800e-02,  7.30500e-03,  6.33500e-03,  1.57900e-03, -8.27800e-05,  4.39200e-04,  3.18000e-04, -6.49500e-05],
                           [-1.20200e-02, -1.25600e-02,  1.13300e-03,  3.25000e-04,  7.29900e-04,  8.92500e-05,  9.53100e-05,  1.05800e-04]])

# Reaction 6
chebyshev_reaction('bQOOH[O] (+ M) <=> bQOOHg (+ M)',
                   Tmin=180.0, Tmax=1500.0,
                   Pmin=(0.01, 'atm'), Pmax=(98.692, 'atm'),
                   coeffs=[[-5.12200e+00,  1.14300e+00, -3.58700e-01, -5.28600e-02,  2.42900e-02,  2.95500e-03, -1.43500e-03, -2.65600e-04],
                           [ 3.39600e-01,  1.77600e+00,  3.36100e-01, -2.46700e-02, -4.16400e-02,  4.53700e-03,  5.21500e-03, -5.34000e-04],
                           [-3.32100e+00, -2.17300e-01,  1.02800e-01,  1.13000e-01,  7.64600e-03, -1.68400e-02, -2.63000e-03,  2.85700e-03],
                           [-1.98500e+00, -4.76300e-01, -7.64900e-02,  2.17800e-02,  2.63600e-02,  6.15600e-03, -4.40000e-03, -1.92600e-03],
                           [-9.06200e-01, -1.91600e-01, -8.42000e-02, -3.52900e-02,  3.25400e-03,  1.03500e-02,  2.38400e-03, -1.67000e-03],
                           [-3.66600e-01, -4.58000e-02, -1.82300e-02, -1.83900e-02, -1.17400e-02, -7.31300e-04,  3.48300e-03,  1.14600e-03],
                           [-1.72500e-01, -4.87900e-03,  1.13600e-02,  2.65900e-03, -5.36200e-03, -4.91300e-03, -4.02300e-04,  1.32400e-03],
                           [-8.17600e-02, -1.04500e-02,  8.32300e-03,  4.62600e-03,  1.40700e-03, -1.40700e-03, -1.65900e-03, -2.34900e-04],
                           [-2.63500e-02, -1.21000e-02, -2.81200e-03,  1.23100e-03,  1.61900e-03,  7.47700e-04, -4.73000e-04, -5.80100e-04],
                           [ 8.33700e-03, -1.27900e-02, -3.98600e-03,  2.09100e-03,  1.02400e-05,  4.72300e-05,  1.90500e-04, -6.80100e-05]])

# Reaction 7
chebyshev_reaction('O2 + bR (+ M) <=> bQOOHg (+ M)',
                   Tmin=180.0, Tmax=1500.0,
                   Pmin=(0.01, 'atm'), Pmax=(98.692, 'atm'),
                   coeffs=[[ 5.41700e+00,  7.94700e-01, -5.16500e-01,  8.77600e-03,  3.87000e-02, -1.07400e-02, -2.78700e-03,  2.74800e-03],
                           [-1.67600e+00,  1.71400e+00,  2.96300e-01, -8.54200e-02, -4.05800e-02,  2.24900e-02,  1.23100e-03, -4.35900e-03],
                           [-1.64100e+00,  3.62600e-01,  1.99100e-01,  5.09000e-02, -2.08000e-02, -1.00000e-02,  4.97900e-03,  9.96900e-04],
                           [-1.14300e+00, -1.36700e-01,  3.73800e-02,  4.86300e-02,  1.24900e-02, -7.77900e-03, -2.27100e-03,  1.53200e-03],
                           [-6.32800e-01, -1.70200e-01, -4.41300e-02,  5.74400e-03,  1.64500e-02,  2.27000e-03, -2.69800e-03, -4.22400e-04],
                           [-2.92700e-01, -7.74600e-02, -4.41900e-02, -1.96100e-02,  4.81400e-03,  4.97300e-03,  1.13300e-04, -8.42300e-04],
                           [-1.09800e-01, -1.29900e-03, -1.18600e-02, -2.09300e-02, -4.52900e-03,  2.33000e-03,  1.32200e-03, -1.56600e-04],
                           [-2.89300e-02,  2.28400e-02,  1.45900e-02, -8.69200e-03, -7.00100e-03, -7.68900e-04,  9.07100e-04,  3.04500e-04],
                           [-2.45400e-04,  1.35200e-02,  2.10200e-02,  3.59700e-03, -4.11700e-03, -2.09500e-03,  3.09700e-05,  3.09500e-04],
                           [ 1.95700e-03, -3.46500e-03,  1.18400e-02,  8.69000e-03,  2.94600e-04, -1.59400e-03, -5.33900e-04,  1.08200e-04]])
#  bRO2(+M) <=> bQOOHa(+M)                             1.000e+00 0.000     0.000
#      TCHEB/ 180.000   1500.000 /
#      PCHEB/ 0.010     98.692   /
#      CHEB/ 10 8/
#      CHEB/ -6.593e+00   1.233e+00    -5.089e-02   2.312e-02    -8.077e-03  /
#      CHEB/ -5.614e-04   2.221e-05    1.099e-04    4.536e+00    1.346e+00   /
#      CHEB/ 1.502e-01    -1.548e-02   -1.856e-03   -1.570e-03   5.044e-06   /
#      CHEB/ 9.895e-05    -2.615e+00   3.002e-01    7.156e-02    1.653e-02   /
#      CHEB/ 3.021e-03    -1.166e-03   -2.038e-04   5.379e-05    -1.508e+00  /
#      CHEB/ -1.287e-01   -5.834e-02   1.413e-02    9.719e-03    9.457e-04   /
#      CHEB/ -4.722e-04   -1.542e-04   -8.100e-01   -1.518e-01   -7.537e-02  /
#      CHEB/ -3.670e-03   4.607e-03    2.100e-03    1.253e-04    -1.876e-04  /
#      CHEB/ -3.934e-01   -7.538e-02   -2.410e-02   -6.982e-03   -1.713e-03  /
#      CHEB/ 3.746e-04    2.886e-04    4.831e-05    -1.833e-01   -2.449e-02  /
#      CHEB/ 1.052e-02    -8.712e-04   -1.743e-03   -7.615e-04   -1.713e-04  /
#      CHEB/ 5.810e-05    -1.198e-01   1.126e-03    3.134e-03    3.638e-03   /
#      CHEB/ 3.719e-04    -6.007e-05   -2.521e-04   -1.038e-04   -5.820e-02  /
#      CHEB/ -1.384e-02   -4.582e-03   -7.311e-04   1.111e-03    7.512e-04   /
#      CHEB/ 8.337e-05    -8.855e-05   -6.576e-03   -2.331e-02   -5.618e-03  /
#      CHEB/ -5.515e-03   1.375e-04    5.925e-04    2.707e-04    4.432e-05   /
#  bQOOHg(+M) <=> bQOOHa(+M)                           1.000e+00 0.000     0.000
#      TCHEB/ 180.000   1500.000 /
#      PCHEB/ 0.010     98.692   /
#      CHEB/ 10 8/
#      CHEB/ -8.315e+00   1.332e+00    -1.166e-01   -6.093e-02   -6.923e-03  /
#      CHEB/ 4.417e-03    1.376e-05    2.346e-04    1.154e+00    2.052e+00   /
#      CHEB/ 2.603e-01    5.865e-02    -1.857e-02   -1.213e-02   2.809e-03   /
#      CHEB/ 8.388e-04    -2.912e+00   -2.951e-02   -1.827e-02   5.999e-02   /
#      CHEB/ 3.808e-02    1.567e-03    -6.505e-03   -1.011e-03   -1.962e+00  /
#      CHEB/ -4.212e-01   -6.294e-02   2.375e-03    7.762e-03    7.232e-03   /
#      CHEB/ 1.405e-03    -7.990e-04   -9.660e-01   -2.318e-01   -5.637e-02  /
#      CHEB/ -1.222e-02   -6.123e-03   8.533e-04    2.208e-03    4.933e-04   /
#      CHEB/ -3.858e-01   -8.302e-02   -3.655e-02   -6.437e-03   -6.753e-04  /
#      CHEB/ -2.478e-03   -6.181e-04   5.427e-04    -1.471e-01   7.534e-03   /
#      CHEB/ -4.995e-03   -6.428e-03   1.365e-03    -1.622e-04   -1.168e-03  /
#      CHEB/ -2.485e-04   -5.530e-02   2.713e-02    7.564e-03    -6.201e-04  /
#      CHEB/ -4.864e-04   7.857e-04    -1.507e-06   -3.627e-04   -2.080e-02  /
#      CHEB/ 7.305e-03    6.335e-03    1.579e-03    -8.278e-05   4.392e-04   /
#      CHEB/ 3.180e-04    -6.495e-05   -1.195e-02   -1.256e-02   1.133e-03   /
#      CHEB/ 3.250e-04    7.299e-04    8.925e-05    9.531e-05    1.058e-04   /

# Reaction 8
chebyshev_reaction('bQOOH[O] (+ M) <=> bQOOHa (+ M)',
                   Tmin=180.0, Tmax=1500.0,
                   Pmin=(0.01, 'atm'), Pmax=(98.692, 'atm'),
                   coeffs=[[-4.57300e+00,  1.09600e+00, -1.98000e-01, -1.07600e-02, -2.79100e-03,  5.51300e-04, -1.83800e-04,  1.44900e-04],
                           [-3.44000e+00,  2.14000e+00,  3.61100e-01, -1.92100e-02, -2.05700e-02, -2.47700e-03,  1.72400e-03,  3.59600e-04],
                           [-3.58000e+00, -2.97100e-01,  6.46900e-02,  7.93700e-02,  1.37400e-02, -4.41200e-03, -1.92800e-03,  7.75600e-05],
                           [-1.82700e+00, -4.85400e-01, -1.93800e-01,  5.66100e-03,  2.49500e-02,  6.61400e-03, -1.12400e-03, -1.02700e-03],
                           [-7.44500e-01, -1.05300e-01, -1.20700e-01, -4.17400e-02, -1.86500e-03,  5.74800e-03,  2.05600e-03, -1.98000e-04],
                           [-2.83000e-01,  6.03800e-02,  1.27600e-02, -1.51900e-02, -1.27400e-02, -2.79900e-03,  1.10000e-03,  8.01500e-04],
                           [-1.43800e-01,  3.46000e-02,  4.49500e-02,  1.39200e-02, -1.69900e-03, -4.19600e-03, -1.39500e-03,  2.81600e-04],
                           [-1.16300e-01, -5.51400e-03,  5.69100e-03,  1.23500e-02,  6.66500e-03,  7.91800e-04, -1.25700e-03, -6.30600e-04],
                           [-6.16100e-02, -3.40200e-02, -1.80200e-02, -3.26500e-03,  3.84100e-03,  3.08800e-03,  5.39400e-04, -4.44100e-04],
                           [-8.95900e-03, -3.66100e-02, -1.28100e-02, -9.35200e-03, -1.80700e-03,  9.73600e-04,  1.04600e-03,  2.70400e-04]])

# Reaction 9
chebyshev_reaction('O2 + bR (+ M) <=> bQOOHa (+ M)',
                   Tmin=180.0, Tmax=1500.0,
                   Pmin=(0.01, 'atm'), Pmax=(98.692, 'atm'),
                   coeffs=[[ 3.14200e+00,  1.67400e+00,  1.80500e-01, -7.29000e-02, -8.16900e-02, -1.20900e-02,  9.51100e-03,  7.14400e-03],
                           [-2.45200e+00,  6.56500e-01, -2.65600e-02,  1.28700e-01,  6.91200e-02,  2.12100e-03, -1.37500e-02, -8.08300e-03],
                           [-1.71800e+00,  7.95400e-02, -7.70100e-02,  8.25100e-04,  2.47000e-02,  8.52000e-03,  1.84700e-03, -3.53700e-04],
                           [-1.03900e+00, -4.93600e-02, -3.85700e-02, -2.88000e-02, -2.37200e-03,  2.33400e-03,  2.57600e-03,  1.18300e-03],
                           [-5.16600e-01, -3.40700e-02,  1.11000e-02, -1.45500e-02, -8.31200e-03, -2.34700e-03,  2.52100e-04,  5.93100e-04],
                           [-2.20900e-01, -1.77000e-02,  3.48100e-02,  2.02800e-03, -3.74500e-03, -2.66500e-03, -9.56300e-04, -2.30800e-05],
                           [-8.73000e-02, -2.28300e-02,  2.78500e-02,  9.20400e-03,  2.00300e-03, -7.44300e-04, -9.61500e-04, -3.10500e-04],
                           [-5.02900e-02, -2.81000e-02,  3.92100e-03,  1.04000e-02,  3.84300e-03,  7.59400e-04, -4.92000e-04, -3.09900e-04],
                           [-2.12500e-02, -3.61000e-02, -1.22100e-02,  2.38500e-03,  2.86200e-03,  1.66400e-03,  2.61100e-04, -1.49400e-04],
                           [-9.48700e-03, -3.14700e-02, -1.39000e-02, -3.81600e-03,  5.20100e-04,  9.24600e-04,  3.84700e-04,  7.88100e-05]])
#  bRO2(+M) <=> bQOOH[O](+M)                           1.000e+00 0.000     0.000
#      TCHEB/ 180.000   1500.000 /
#      PCHEB/ 0.010     98.692   /
#      CHEB/ 10 8/
#      CHEB/ -4.077e+00   1.198e+00    -1.373e-01   9.510e-03    3.831e-03   /
#      CHEB/ -4.909e-04   -1.820e-04   9.820e-05    3.903e+00    9.808e-01   /
#      CHEB/ 8.650e-02    -2.396e-02   -2.725e-05   2.203e-03    -2.597e-05  /
#      CHEB/ -1.872e-04   -3.179e+00   -1.069e-01   6.083e-02    2.887e-02   /
#      CHEB/ -2.404e-03   -2.118e-03   3.538e-04    2.780e-04    -1.602e+00  /
#      CHEB/ -2.296e-01   -6.559e-02   1.196e-02    9.758e-03    -1.211e-04  /
#      CHEB/ -1.073e-03   1.830e-05    -7.359e-01   -5.869e-02   -5.561e-02  /
#      CHEB/ -1.691e-02   2.938e-03    2.965e-03    7.928e-05    -3.883e-04  /
#      CHEB/ -3.588e-01   -1.918e-03   1.869e-03    -6.683e-03   -4.322e-03  /
#      CHEB/ -2.583e-04   7.137e-04    1.844e-04    -2.086e-01   -3.115e-02  /
#      CHEB/ 1.142e-02    8.652e-03    3.608e-04    -1.895e-03   -5.466e-04  /
#      CHEB/ 2.494e-04    -1.330e-01   -4.439e-02   -1.164e-02   4.068e-03   /
#      CHEB/ 4.639e-03    7.072e-04    -7.473e-04   -3.111e-04   -5.733e-02  /
#      CHEB/ -3.562e-02   -2.086e-02   -5.958e-03   1.484e-03    1.883e-03   /
#      CHEB/ 3.535e-04    -2.601e-04   5.763e-03    -1.857e-02   -1.026e-02  /
#      CHEB/ -6.610e-03   -2.541e-03   1.013e-04    5.987e-04    2.189e-04   /
#  bQOOHg(+M) <=> bQOOH[O](+M)                         1.000e+00 0.000     0.000
#      TCHEB/ 180.000   1500.000 /
#      PCHEB/ 0.010     98.692   /
#      CHEB/ 10 8/
#      CHEB/ -5.379e+00   1.143e+00    -3.587e-01   -5.286e-02   2.429e-02   /
#      CHEB/ 2.955e-03    -1.435e-03   -2.656e-04   -1.333e-01   1.776e+00   /
#      CHEB/ 3.361e-01    -2.467e-02   -4.164e-02   4.537e-03    5.215e-03   /
#      CHEB/ -5.340e-04   -3.472e+00   -2.173e-01   1.028e-01    1.130e-01   /
#      CHEB/ 7.646e-03    -1.684e-02   -2.630e-03   2.857e-03    -2.044e+00  /