units(length='cm', time='s', quantity='mol', act_energy='kcal/mol')

ideal_gas(name='gas',
          elements="H D T C Ci O Oi N Ne Ar He Si S F Cl Br I X",
          species="""aOOHbalkene      OH               ibutanal
                     aR               performic_acid   disub_c4ether
                     aQOOHb           H                aadduct
                     trisub_epoxy     ibutenol         aQOOH[O]
                     ipropyl          aRO2             O2
                     formic_acid      propene          aQOOHg
                     ibut_peroxyacid  HO2              CH3""",
          reactions='all',
          initial_state=state(temperature=300.0, pressure=OneAtm))

#-------------------------------------------------------------------------------
# Element data
#-------------------------------------------------------------------------------

element(symbol='Ci', atomic_mass=13.003)
element(symbol='D', atomic_mass=2.014)
element(symbol='Oi', atomic_mass=18.0)
element(symbol='T', atomic_mass=3.016)
element(symbol='X', atomic_mass=195.083)
#-------------------------------------------------------------------------------
# Species data
#-------------------------------------------------------------------------------

species(name='aOOHbalkene',
        atoms='C:3 H:6 O:3',
        thermo=(NASA([10.00, 497.41],
                     [ 3.76691735E+00,  1.51417956E-02,  1.85499431E-04,
                      -4.61303214E-07,  3.27678941E-10, -3.26491969E+04,
                       1.09903968E+01]),
                NASA([497.41, 3000.00],
                     [ 6.20882781E+00,  4.08866173E-02, -2.89934946E-05,
                       9.60428979E-09, -1.19355432E-12, -3.34535262E+04,
                      -4.72842811E+00])))

species(name='OH',
        atoms='H:1 O:1',
        thermo=(NASA([10.00, 984.14],
                     [ 3.49686242E+00,  1.83973160E-04, -9.97634499E-07,
                       1.56942783E-09, -6.10128175E-13,  3.41673934E+03,
                       1.48093120E+00]),
                NASA([984.14, 3000.00],
                     [ 3.45221464E+00, -2.95124034E-04,  7.39418622E-07,
                      -2.89309866E-10,  3.53041498E-14,  3.45751599E+03,
                       1.85813897E+00])))

species(name='ibutanal',
        atoms='C:4 H:8 O:1',
        thermo=(NASA([10.00, 683.88],
                     [ 3.57157346E+00,  3.36936906E-02, -1.78475021E-05,
                       1.31946716E-08, -7.58008388E-12, -2.58015111E+04,
                       1.05595084E+01]),
                NASA([683.88, 3000.00],
                     [ 1.29043622E+00,  4.14804229E-02, -2.27411206E-05,
                       6.08619500E-09, -6.38995128E-13, -2.53595920E+04,
                       2.16477430E+01])))

species(name='aR',
        atoms='C:4 H:9 O:1',
        thermo=(NASA([10.00, 455.22],
                     [ 3.59625500E+00,  3.38947981E-02,  7.37257079E-06,
                      -3.99275335E-08,  2.49019944E-11, -1.39104688E+04,
                       1.18269265E+01]),
                NASA([455.22, 3000.00],
                     [ 2.49586309E+00,  4.35639890E-02, -2.44887770E-05,
                       6.73363769E-09, -7.23862433E-13, -1.38102856E+04,
                       1.62696907E+01])))

species(name='performic_acid',
        atoms='C:1 H:2 O:3',
        thermo=(NASA([10.00, 590.95],
                     [ 3.92633851E+00,  4.24517168E-03,  6.71106764E-05,
                      -1.36545385E-07,  8.03337864E-11, -3.63028176E+04,
                       8.06485813E+00]),
                NASA([590.95, 3000.00],
                     [ 4.39992934E+00,  1.85411415E-02, -1.36005501E-05,
                       4.62292431E-09, -5.88463603E-13, -3.66643888E+04,
                       3.44353230E+00])))

species(name='disub_c4ether',
        atoms='C:4 H:8 O:2',
        thermo=(NASA([10.00, 413.50],
                     [ 3.78241323E+00,  1.89501763E-02,  8.65302396E-05,
                      -1.80580575E-07,  1.13656264E-10, -3.88351686E+04,
                       1.09982450E+01]),
                NASA([413.50, 3000.00],
                     [ 4.29420885E-01,  5.13851903E-02, -3.11292293E-05,
                       9.11498284E-09, -1.03192718E-12, -3.85578743E+04,
                       2.42134976E+01])))

species(name='aQOOHb',
        atoms='C:4 H:9 O:3',
        thermo=(NASA([10.00, 412.78],
                     [ 3.15498836E+00,  8.55068303E-02, -2.35307993E-04,
                       4.71983261E-07, -3.62709267E-10, -2.60298191E+04,
                       1.52522123E+01]),
                NASA([412.78, 3000.00],
                     [ 4.18099845E+00,  5.26168288E-02, -3.23998410E-05,
                       9.59389339E-09, -1.09464519E-12, -2.59190242E+04,
                       1.35782328E+01])))

species(name='H',
        atoms='H:1',
        thermo=(NASA([10.00, 794.01],
                     [ 2.50000000E+00,  1.99051163E-15, -1.19089508E-17,
                       2.10805655E-20, -1.11017699E-23,  2.54725594E+04,
                      -4.61279342E-01]),
                NASA([794.01, 3000.00],
                     [ 2.50000000E+00,  1.52667235E-14, -1.58445285E-17,
                       6.63088600E-21, -9.62111674E-25,  2.54725594E+04,
                      -4.61279342E-01])))

species(name='aadduct',
        atoms='C:4 H:9 O:3',
        thermo=(NASA([10.00, 449.84],
                     [ 3.06901904E+00,  9.20724491E-02, -2.68085092E-04,
                       5.15249897E-07, -3.68046586E-10, -3.09140103E+04,
                       1.46591735E+01]),
                NASA([449.84, 3000.00],
                     [ 4.11210745E+00,  5.16955724E-02, -2.97401041E-05,
                       8.32758939E-09, -9.08861448E-13, -3.06931694E+04,
                       1.39578825E+01])))

species(name='trisub_epoxy',
        atoms='C:4 H:8 O:2',
        thermo=(NASA([10.00, 209.19],
                     [ 3.75295042E+00,  2.37546930E-02,  1.26610110E-04,
                      -4.78364365E-07,  5.79468168E-10, -4.17833304E+04,
                       1.12739684E+01]),
                NASA([209.19, 3000.00],
                     [ 2.64185254E+00,  4.50006531E-02, -2.57361066E-05,
                       7.15266054E-09, -7.72980731E-13, -4.17368448E+04,
                       1.48960343E+01])))

species(name='ibutenol',
        atoms='C:4 H:8 O:1',
        thermo=(NASA([10.00, 135.97],
                     [ 3.95714996E+00,  5.72646980E-03,  4.63611760E-04,
                      -3.04137514E-06,  6.85019471E-09, -2.34752288E+04,
                       8.21931848E+00]),
                NASA([135.97, 3000.00],
                     [ 3.32467612E+00,  3.69033556E-02, -1.89960416E-05,
                       4.73417677E-09, -4.59705291E-13, -2.34696501E+04,
                       9.58133237E+00])))

species(name='aQOOH[O]',
        atoms='C:4 H:9 O:3',
        thermo=(NASA([10.00, 488.36],
                     [ 3.54559533E+00,  3.89536133E-02,  8.47689703E-05,
                      -2.45147486E-07,  1.76157259E-10, -2.26324482E+04,
                       1.34685910E+01]),
                NASA([488.36, 3000.00],
                     [ 3.94214913E+00,  5.71928314E-02, -3.72516212E-05,
                       1.15209013E-08, -1.35808341E-12, -2.29274091E+04,
                       9.21628964E+00])))

species(name='ipropyl',
        atoms='C:3 H:7',
        thermo=(NASA([10.00, 421.76],
                     [ 3.73943775E+00,  3.10070157E-02, -1.51196908E-04,
                       4.35367329E-07, -3.85565052E-10,  9.49213457E+03,
                       7.79448918E+00]),
                NASA([421.76, 3000.00],
                     [-4.74526725E-01,  3.20862468E-02, -1.67340747E-05,
                       4.21365136E-09, -4.13155573E-13,  1.01934458E+04,
                       2.85865912E+01])))

species(name='aRO2',
        atoms='C:4 H:9 O:3',
        thermo=(NASA([10.00, 670.36],
                     [ 3.45405325E+00,  4.74751311E-02,  9.77507759E-06,
                      -6.31019603E-08,  3.75500067E-11, -3.62808846E+04,
                       1.39284976E+01]),
                NASA([670.36, 3000.00],
                     [ 5.04137652E+00,  5.19952978E-02, -3.16472789E-05,
                       9.22798587E-09, -1.03598915E-12, -3.68080772E+04,
                       4.56056770E+00])))

species(name='O2',
        atoms='O:2',
        thermo=(NASA([10.00, 605.96],
                     [ 3.50743498E+00, -4.43860349E-04,  1.45938058E-06,
                       1.61509333E-09, -2.32050052E-12, -9.24756224E+02,
                       4.72183634E+00]),
                NASA([605.96, 3000.00],
                     [ 2.87462882E+00,  2.17840991E-03, -1.18262921E-06,
                       2.86910493E-10, -2.53297146E-14, -8.19517838E+02,
                       7.69331810E+00])))

species(name='formic_acid',
        atoms='C:1 H:2 O:2',
        thermo=(NASA([10.00, 741.38],
                     [ 4.06855785E+00, -4.74562133E-03,  4.71797900E-05,
                      -6.07490052E-08,  2.51286794E-11, -4.66880837E+04,
                       6.53681035E+00]),
                NASA([741.38, 3000.00],
                     [ 1.13645847E+00,  1.74953124E-02, -1.08112403E-05,
                       3.08075326E-09, -3.34892658E-13, -4.64297918E+04,
                       1.86149484E+01])))

species(name='propene',
        atoms='C:3 H:6',
        thermo=(NASA([10.00, 519.53],
                     [ 3.98723879E+00,  4.72040503E-04,  6.51776229E-05,
                      -9.89891002E-08,  4.91141123E-11,  7.92473022E+02,
                       6.98071210E+00]),
                NASA([519.53, 3000.00],
                     [ 3.79893331E-01,  2.82457690E-02, -1.50108430E-05,
                       3.90894069E-09, -4.00521928E-13,  1.16730037E+03,
                       2.20218922E+01])))

species(name='aQOOHg',
        atoms='C:4 H:9 O:3',
        thermo=(NASA([10.00, 455.48],
                     [ 3.62522127E+00,  2.83222320E-02,  2.08527447E-04,
                      -5.67427418E-07,  4.35169138E-10, -2.66089679E+04,
                       1.26617758E+01]),
                NASA([455.48, 3000.00],
                     [ 5.13914202E+00,  5.96270859E-02, -4.14435328E-05,
                       1.34202375E-08, -1.63474553E-12, -2.72095242E+04,
                       1.46991116E+00])))

species(name='ibut_peroxyacid',
        atoms='C:4 H:8 O:3',
        thermo=(NASA([10.00, 1386.21],
                     [ 3.50995385E+00,  4.78670384E-02, -2.40781384E-05,
                       3.71046938E-09,  3.85442115E-13, -4.94285526E+04,
                       1.22017268E+01]),
                NASA([1386.21, 3000.00],
                     [ 1.24543146E+01,  3.02396862E-02, -1.38577031E-05,
                       3.05328904E-09, -2.63982457E-13, -5.26944359E+04,
                      -3.67061828E+01])))

species(name='HO2',
        atoms='H:1 O:2',
        thermo=(NASA([10.00, 891.11],
                     [ 4.02887004E+00, -1.75769289E-03,  1.08726004E-05,
                      -1.13812972E-08,  3.90113097E-12,  4.95165001E+02,
                       4.69302008E+00]),
                NASA([891.11, 3000.00],
                     [ 3.06571044E+00,  4.28505005E-03, -2.19325920E-06,
                       5.58882699E-10, -5.61246669E-14,  5.98557610E+02,
                       8.84564156E+00])))

species(name='CH3',
        atoms='C:1 H:3',
        thermo=(NASA([10.00, 616.77],
                     [ 3.98929952E+00,  5.45150461E-04,  9.01320092E-06,
                      -1.08320497E-08,  4.38985879E-12,  1.65859883E+04,
                       2.22446886E-01]),
                NASA([616.77, 3000.00],
                     [ 3.35928237E+00,  4.63117126E-03, -9.24365433E-07,
                      -9.02514624E-11,  3.56905106E-14,  1.66637014E+04,
                       2.95743732E+00])))

#-------------------------------------------------------------------------------
# Reaction data
#-------------------------------------------------------------------------------

# Reaction 1
chebyshev_reaction('aQOOH[O] (+ M) <=> aQOOHb (+ M)',
                   Tmin=180.0, Tmax=1500.0,
                   Pmin=(0.01, 'atm'), Pmax=(98.692, 'atm'),
                   coeffs=[[-6.23900e+00,  2.56300e+00, -1.80200e-01,  2.46400e-02,  1.67500e-02, -1.43900e-03, -1.89400e-03,  4.45300e-04],
                           [-4.09900e+00,  1.74400e+00,  4.70500e-02, -7.78100e-02, -9.17400e-03,  9.32200e-03,  2.45400e-03, -1.15300e-03],
                           [-2.89400e+00,  2.82600e-01,  1.08900e-01,  1.42700e-02, -5.81800e-03, -5.11000e-03, -8.14500e-04,  5.26400e-04],
                           [-1.61900e+00, -2.95600e-01,  2.04300e-02,  3.32700e-02,  1.37300e-02,  1.98900e-03, -1.69400e-03, -7.65800e-04],
                           [-7.39100e-01, -2.72300e-01, -5.93500e-02, -7.98200e-03,  4.86100e-03,  5.78600e-03,  1.77300e-03, -4.23500e-04],
                           [-2.76700e-01, -9.53900e-02, -4.52200e-02, -2.44300e-02, -8.66900e-03,  1.26300e-03,  2.44200e-03,  6.91900e-04],
                           [-1.04900e-01,  7.57400e-03, -6.40300e-03, -1.65900e-02, -8.73200e-03, -2.06500e-03,  3.90300e-04,  6.54100e-04],
                           [-3.32900e-02,  3.43100e-02,  1.22500e-02, -1.36500e-04, -4.59600e-03, -2.98700e-03, -7.50300e-04,  2.27000e-04],
                           [ 3.69100e-03,  2.92200e-02,  1.31400e-02,  5.98000e-03,  6.64200e-05, -1.27700e-03, -9.49600e-04, -3.60600e-04],
                           [ 1.61500e-02,  3.60400e-03,  6.70300e-03,  8.69200e-03,  2.53900e-03, -3.35800e-04, -5.82100e-04, -2.93800e-04]])

# Reaction 2
chebyshev_reaction('aQOOHg (+ M) <=> aQOOHb (+ M)',
                   Tmin=180.0, Tmax=1500.0,
                   Pmin=(0.01, 'atm'), Pmax=(98.692, 'atm'),
                   coeffs=[[-9.15600e+00,  1.73300e+00, -4.11800e-01, -3.94900e-02,  1.84300e-02,  2.52400e-03, -1.72800e-03, -2.90500e-04],
                           [ 3.27800e+00,  2.76500e+00,  3.26900e-01, -5.28700e-02, -3.22000e-02,  3.65300e-03,  3.38100e-03, -2.81300e-04],
                           [-2.96700e+00,  7.32500e-03,  3.16100e-01,  8.67900e-02, -1.28100e-02, -7.83800e-03, -2.85000e-04,  7.33300e-04],
                           [-2.06900e+00, -5.69900e-01,  3.60600e-02,  6.90700e-02,  1.28400e-02, -1.04000e-03, -1.03300e-03, -5.51100e-04],
                           [-1.07800e+00, -4.21400e-01, -8.67900e-02,  1.32400e-02,  1.05900e-02,  3.30900e-03,  6.63700e-04, -3.04900e-04],
                           [-4.58600e-01, -2.01500e-01, -8.71800e-02, -1.30900e-02,  1.77400e-03,  1.78600e-03,  9.69200e-04,  2.43300e-04],
                           [-1.27500e-01, -4.48200e-02, -5.17200e-02, -1.50500e-02, -2.11200e-03, -5.12400e-04,  3.31400e-04,  2.87900e-04],
                           [ 1.36400e-02,  3.90500e-02, -1.79200e-02, -9.36500e-03, -2.00700e-03, -1.16800e-03, -2.78000e-04,  1.05400e-04],
                           [ 4.51000e-02,  6.53900e-02,  3.12600e-03, -3.85300e-03, -9.37000e-04, -6.67600e-04, -4.74000e-04, -4.24900e-05],
                           [ 3.01500e-02,  5.32500e-02,  1.31700e-02, -8.47300e-04, -4.09900e-04, -7.69500e-05, -2.22600e-04, -8.76500e-05]])

# Reaction 3
chebyshev_reaction('aRO2 (+ M) <=> aQOOHb (+ M)',
                   Tmin=180.0, Tmax=1500.0,
                   Pmin=(0.01, 'atm'), Pmax=(98.692, 'atm'),
                   coeffs=[[-1.48100e+01,  2.88500e+00, -4.13400e-01,  3.92700e-02, -8.13600e-03, -5.76800e-03,  7.56900e-03, -1.78900e-03],
                           [ 9.85000e+00,  1.81600e+00,  5.78200e-01, -2.12200e-01, -1.79100e-02,  2.49100e-02, -2.59200e-03, -9.15700e-04],
                           [-2.85100e+00,  3.52600e-01,  1.88500e-01,  3.50900e-02, -1.03000e-02, -4.64800e-04, -2.46200e-04, -2.59300e-04],
                           [-1.74900e+00, -3.59900e-01, -5.08400e-02,  5.61700e-02,  2.35400e-02, -3.16400e-03, -4.16900e-03,  1.61900e-04],
                           [-8.84300e-01, -3.48300e-01, -1.20800e-01,  7.07700e-03,  1.93300e-02,  2.95900e-03, -2.14400e-03, -3.05100e-04],
                           [-3.46600e-01, -1.25200e-01, -8.93500e-02, -2.13500e-02,  1.98800e-03,  2.68200e-03,  1.00900e-03,  1.46900e-04],
                           [-8.49300e-02,  4.34200e-03, -3.17800e-02, -1.88400e-02, -6.81300e-03, -4.33200e-04,  1.26100e-03,  4.97400e-04],
                           [ 6.23300e-03,  3.68700e-02,  5.91600e-03, -5.85300e-03, -5.65200e-03, -1.92300e-03,  1.28400e-04,  2.86000e-04],
                           [ 1.47700e-03,  4.51600e-02,  1.08700e-02,  4.95500e-03, -1.26100e-03, -1.85200e-03, -3.69800e-04, -4.51300e-05],
                           [ 1.28800e-02,  1.12800e-02,  1.64900e-02,  5.03800e-03,  9.47000e-04, -1.18100e-04, -5.08300e-04, -1.74500e-04]])

# Reaction 4
chebyshev_reaction('aadduct (+ M) <=> aQOOHb (+ M)',
                   Tmin=180.0, Tmax=1500.0,
                   Pmin=(0.01, 'atm'), Pmax=(98.692, 'atm'),
                   coeffs=[[-1.41400e+01,  3.74800e+00, -5.17500e-01, -1.28300e-01, -2.86300e-02,  1.97900e-02,  1.89400e-02, -5.53600e-03],
                           [ 1.72900e+00,  6.64600e-01,  6.08400e-01, -5.67800e-02, -2.09000e-03, -2.18100e-03, -1.30700e-02,  4.21500e-03],
                           [-3.38600e+00, -1.40000e-03,  2.67400e-03,  1.51800e-02,  1.28000e-02,  1.00300e-02, -2.25300e-03, -3.46400e-03],
                           [-1.87700e+00, -2.24600e-01, -4.02500e-02,  4.15500e-02,  1.67200e-02, -2.37700e-03, -2.12900e-03,  2.56500e-04],
                           [-9.25300e-01, -2.58000e-01, -7.63700e-02,  2.45700e-02,  2.18800e-02,  9.15600e-04, -3.20200e-03, -3.36000e-04],
                           [-3.35200e-01, -1.11200e-01, -8.62900e-02, -2.06200e-02,  1.76600e-03,  2.44000e-03,  1.14300e-03,  4.32300e-04],
                           [-8.77000e-02, -9.71700e-03, -3.71900e-02, -2.22600e-02, -7.72500e-03, -7.44500e-04,  1.14100e-03,  5.76400e-04],
                           [-4.24400e-02,  4.98800e-02,  9.55400e-03, -3.78700e-03, -5.63300e-03, -2.22600e-03, -1.06400e-04,  1.40100e-04],
                           [ 1.24800e-02,  4.59600e-02,  1.09100e-02,  1.75500e-03, -2.13500e-03, -1.47600e-03,  9.94900e-05,  9.16400e-05],
                           [ 2.83600e-02, -6.53100e-03,  8.17100e-03,  6.19200e-03,  1.74400e-03,  2.02700e-04, -4.26800e-04, -2.31600e-04]])

# Reaction 5
chebyshev_reaction('O2 + aR (+ M) <=> aQOOHb (+ M)',
                   Tmin=180.0, Tmax=1500.0,
                   Pmin=(0.01, 'atm'), Pmax=(98.692, 'atm'),
                   coeffs=[[-2.43900e-01,  5.40800e+00, -1.19300e+00, -2.34000e-01,  1.41800e-01, -1.02300e-03, -1.69600e-02,  4.53300e-03],
                           [-1.57500e+00, -7.43600e-01,  1.65400e+00, -2.21300e-02, -2.16600e-01,  2.84400e-02,  2.22400e-02, -8.20500e-03],
                           [-1.37800e+00, -4.86700e-01,  2.45400e-01,  2.00200e-01, -1.66000e-02, -3.03800e-02,  4.34000e-03,  3.32100e-03],
                           [-8.47600e-01, -4.80800e-01, -6.21000e-02,  8.28200e-02,  2.72100e-02, -8.79600e-03, -2.71800e-03,  1.77400e-03],
                           [-4.12000e-01, -2.52500e-01, -1.05100e-01,  6.37700e-03,  1.65000e-02,  9.98900e-04, -1.58300e-03,  6.03600e-04],
                           [-1.51100e-01, -6.88900e-02, -6.19600e-02, -1.57500e-02,  2.70900e-03,  1.44300e-03, -4.92400e-04,  1.85700e-04],
                           [-3.07900e-02,  1.79900e-02, -1.55500e-02, -1.12400e-02, -2.64200e-03, -2.01800e-04, -2.25700e-04, -1.23000e-05],
                           [ 5.43100e-03,  3.61100e-02,  8.32800e-03, -1.10200e-03, -2.01800e-03, -9.74600e-04, -3.71300e-04, -7.00800e-05],
                           [ 5.11700e-03,  2.23300e-02,  1.12000e-02,  4.58100e-03,  5.70100e-04, -6.21200e-04, -4.40500e-04, -1.37100e-04],
                           [-4.19800e-03,  4.29000e-03,  4.00300e-03,  4.19700e-03,  2.10600e-03,  2.60200e-04, -2.81400e-04, -1.68400e-04]])
#  aQOOHb(+M) <=> aQOOH[O](+M)                         1.000e+00 0.000     0.000
#      TCHEB/ 180.000   1500.000 /
#      PCHEB/ 0.010     98.692   /
#      CHEB/ 10 8/
#      CHEB/ -1.232e+01   2.563e+00    -1.802e-01   2.464e-02    1.675e-02   /
#      CHEB/ -1.439e-03   -1.894e-03   4.453e-04    -6.702e-01   1.744e+00   /
#      CHEB/ 4.705e-02    -7.781e-02   -9.174e-03   9.322e-03    2.454e-03   /
#      CHEB/ -1.153e-03   -2.817e+00   2.826e-01    1.089e-01    1.427e-02   /
#      CHEB/ -5.818e-03   -5.110e-03   -8.145e-04   5.264e-04    -1.573e+00  /
#      CHEB/ -2.956e-01   2.043e-02    3.327e-02    1.373e-02    1.989e-03   /
#      CHEB/ -1.694e-03   -7.658e-04   -7.237e-01   -2.723e-01   -5.935e-02  /
#      CHEB/ -7.982e-03   4.861e-03    5.786e-03    1.773e-03    -4.235e-04  /
#      CHEB/ -2.719e-01   -9.539e-02   -4.522e-02   -2.443e-02   -8.669e-03  /
#      CHEB/ 1.263e-03    2.442e-03    6.919e-04    -1.031e-01   7.574e-03   /
#      CHEB/ -6.403e-03   -1.659e-02   -8.732e-03   -2.065e-03   3.903e-04   /
#      CHEB/ 6.541e-04    -3.258e-02   3.431e-02    1.225e-02    -1.365e-04  /
#      CHEB/ -4.596e-03   -2.987e-03   -7.503e-04   2.270e-04    3.885e-03   /
#      CHEB/ 2.922e-02    1.314e-02    5.980e-03    6.642e-05    -1.277e-03  /
#      CHEB/ -9.496e-04   -3.606e-04   1.615e-02    3.604e-03    6.703e-03   /
#      CHEB/ 8.692e-03    2.539e-03    -3.358e-04   -5.821e-04   -2.938e-04  /

# Reaction 6
chebyshev_reaction('aQOOHg (+ M) <=> aQOOH[O] (+ M)',
                   Tmin=180.0, Tmax=1500.0,
                   Pmin=(0.01, 'atm'), Pmax=(98.692, 'atm'),
                   coeffs=[[-9.27200e+00,  2.05800e+00, -1.03300e-01,  1.91300e-02,  6.71800e-03, -9.74400e-04, -6.51200e-04,  3.21900e-04],
                           [ 6.04200e-01,  7.07600e-01,  8.13400e-03,  9.18300e-03, -2.13600e-03,  4.13500e-03,  5.69200e-04, -1.20800e-03],
                           [-2.94000e+00,  3.33700e-01,  6.64100e-02,  2.54700e-02, -9.59500e-03, -6.83900e-03,  1.24200e-03,  1.20100e-03],
                           [-1.91000e+00, -3.20500e-02,  2.07400e-02,  3.27700e-02,  1.82900e-02, -1.48800e-03, -3.71800e-03, -1.26700e-04],
                           [-9.93900e-01, -1.77000e-01, -4.12700e-02, -1.02200e-02,  1.10000e-02,  8.97000e-03,  5.87800e-04, -1.69500e-03],
                           [-4.38300e-01, -1.47600e-01, -3.82500e-02, -1.79500e-02, -7.39700e-03,  2.68800e-03,  3.33600e-03,  5.82600e-04],
                           [-1.86800e-01, -5.96100e-02, -3.69300e-02, -1.15200e-02, -5.79800e-03, -1.82500e-03,  8.37200e-04,  9.32100e-04],
                           [-2.71900e-02, -7.94800e-03, -2.46700e-02, -6.75000e-03, -2.76600e-03, -2.31100e-03, -4.78300e-04,  4.16900e-04],
                           [ 2.64600e-02,  5.09400e-02, -2.72300e-03, -6.22600e-03, -2.17300e-03, -1.52800e-03, -8.09800e-04,  8.78400e-06],
                           [ 6.42200e-02,  4.34100e-02,  9.79600e-03, -9.18300e-04, -7.57400e-04, -9.03600e-04, -7.90500e-04, -2.33000e-04]])

# Reaction 7
chebyshev_reaction('aRO2 (+ M) <=> aQOOH[O] (+ M)',
                   Tmin=180.0, Tmax=1500.0,
                   Pmin=(0.01, 'atm'), Pmax=(98.692, 'atm'),
                   coeffs=[[-1.44700e+01,  4.35500e+00, -8.41500e-01,  1.10200e-01,  3.83500e-02, -2.97200e-02,  6.74800e-03,  1.08700e-03],
                           [ 8.21800e+00,  4.02200e-01,  5.04100e-01, -2.17300e-01,  1.01200e-02,  3.18100e-02, -1.25800e-02,  6.66800e-04],
                           [-3.50600e+00,  9.50100e-02,  1.17800e-01, -1.31100e-02, -2.64800e-02,  6.74600e-03,  2.16100e-03, -1.36800e-03],
                           [-1.64500e+00, -5.08300e-02,  4.39500e-02,  1.59800e-02, -6.99900e-03, -1.00700e-03,  5.88900e-04, -2.00900e-04],
                           [-7.27900e-01, -9.93000e-02, -9.73500e-03,  1.22400e-02,  2.94700e-03, -1.36800e-03, -2.30200e-04,  3.21600e-05],
                           [-3.04000e-01, -7.27400e-02, -3.42300e-02,  1.72400e-03,  3.77400e-03, -2.81800e-04,  8.53300e-05, -1.17000e-04],
                           [-1.34500e-01, -6.11100e-02, -6.75600e-03, -6.54400e-03, -1.35400e-03,  1.76400e-03,  7.32200e-05, -1.95000e-04],
                           [-5.38600e-02,  5.31100e-03, -1.23300e-02, -5.16400e-03, -1.05100e-03,  2.07700e-04,  2.78700e-04, -1.94100e-05],
                           [ 8.90400e-03,  5.35800e-03,  4.97200e-03, -1.08000e-03, -1.95700e-03, -7.01200e-04,  1.70200e-04,  1.72700e-04],
                           [ 1.19100e-02,  3.34200e-02, -9.57100e-04,  5.63600e-04,  1.45400e-04, -7.63500e-04, -1.05300e-04,  2.71100e-05]])

# Reaction 8
chebyshev_reaction('aadduct (+ M) <=> aQOOH[O] (+ M)',
                   Tmin=180.0, Tmax=1500.0,
                   Pmin=(0.01, 'atm'), Pmax=(98.692, 'atm'),
                   coeffs=[[-1.38100e+01,  5.21900e+00, -9.45500e-01, -5.70400e-02,  1.79500e-02, -4.05600e-03,  1.81600e-02, -2.64400e-03],
                           [ 9.63900e-02, -7.49300e-01,  5.33500e-01, -6.20400e-02,  2.56300e-02,  4.62500e-03, -2.31300e-02,  5.76100e-03],
                           [-4.04200e+00, -2.58400e-01, -6.81300e-02, -3.27700e-02, -3.39200e-03,  1.73200e-02,  1.71700e-04, -4.56700e-03],
                           [-1.77300e+00,  8.49700e-02,  5.43700e-02,  1.54000e-03, -1.38500e-02, -1.72100e-04,  2.63000e-03, -1.08100e-04],
                           [-7.69200e-01, -8.81700e-03,  3.44800e-02,  2.97800e-02,  5.42000e-03, -3.40400e-03, -1.30200e-03, -5.62700e-06],
                           [-2.92700e-01, -5.85800e-02, -3.12900e-02,  2.49500e-03,  3.51200e-03, -5.08100e-04,  2.12900e-04,  1.66300e-04],
                           [-1.37300e-01, -7.50400e-02, -1.21900e-02, -9.92400e-03, -2.27600e-03,  1.47300e-03, -4.93500e-05, -1.16200e-04],
                           [-1.02600e-01,  1.83800e-02, -8.68300e-03, -3.08300e-03, -1.03500e-03, -8.10900e-05,  4.10500e-05, -1.65700e-04],
                           [ 1.98600e-02,  6.13100e-03,  4.98900e-03, -4.31100e-03, -2.85000e-03, -3.25700e-04,  6.32300e-04,  3.08000e-04],
                           [ 2.74100e-02,  1.56400e-02, -9.23300e-03,  1.72700e-03,  9.54000e-04, -4.30500e-04, -2.34500e-05, -2.90300e-05]])

# Reaction 9
chebyshev_reaction('O2 + aR (+ M) <=> aQOOH[O] (+ M)',
                   Tmin=180.0, Tmax=1500.0,
                   Pmin=(0.01, 'atm'), Pmax=(98.692, 'atm'),
                   coeffs=[[-1.86100e+00,  3.16600e+00,  2.92500e-01, -1.71500e-01, -1.13400e-01,  4.99400e-02,  5.54600e-02, -1.40400e-02],
                           [-2.67500e+00, -9.13300e-01, -4.49100e-02,  3.12000e-01,  1.13700e-01, -1.02800e-01, -7.09000e-02,  3.48400e-02],
                           [-1.58700e+00, -1.86500e-02, -5.18300e-02, -1.14100e-02,  5.37000e-02,  5.07100e-02, -5.97000e-03, -3.09200e-02],
                           [-7.77600e-01, -2.78500e-02, -3.92000e-02, -2.68900e-02,  1.96000e-03,  2.19500e-02,  1.77500e-02, -6.95200e-04],
                           [-3.33500e-01, -3.75100e-02, -3.55200e-02, -2.57400e-02, -1.17500e-02,  1.55700e-03,  8.92400e-03,  7.12200e-03],
                           [-1.37100e-01, -2.83200e-02, -1.74600e-02, -1.39600e-02, -1.24400e-02, -6.47600e-03,  1.44700e-03,  5.08300e-03],
                           [-1.00400e-01,  5.39300e-03, -5.91100e-03, -1.06300e-02, -7.34100e-03, -3.39200e-03, -1.80400e-03, -7.49600e-05],
                           [-3.51500e-02, -3.55500e-03, -4.03500e-04,  1.18700e-03, -1.84700e-03, -4.14300e-03, -2.43500e-03,  7.80500e-05],
                           [-6.04500e-03,  9.85300e-03,  4.90900e-03,  5.16600e-04, -7.51100e-04, -6.69800e-04, -1.09100e-03, -1.24000e-03],
                           [ 2.34900e-02, -1.92500e-03,  3.11700e-03,  3.81300e-03,  2.02000e-03,  2.17400e-05, -9.44900e-04, -7.29800e-04]])
#  aQOOHb(+M) <=> aQOOHg(+M)                           1.000e+00 0.000     0.000
#      TCHEB/ 180.000   1500.000 /
#      PCHEB/ 0.010     98.692   /
#      CHEB/ 10 8/
#      CHEB/ -1.006e+01   1.733e+00    -4.118e-01   -3.949e-02   1.843e-02   /
#      CHEB/ 2.524e-03    -1.728e-03   -2.905e-04   2.789e+00    2.765e+00   /
#      CHEB/ 3.269e-01    -5.287e-02   -3.220e-02   3.653e-03    3.381e-03   /
#      CHEB/ -2.813e-04   -2.743e+00   7.325e-03    3.161e-01    8.679e-02   /
#      CHEB/ -1.281e-02   -7.838e-03   -2.850e-04   7.333e-04    -1.975e+00  /
#      CHEB/ -5.699e-01   3.606e-02    6.907e-02    1.284e-02    -1.040e-03  /
#      CHEB/ -1.033e-03   -5.511e-04   -1.049e+00   -4.214e-01   -8.679e-02  /
#      CHEB/ 1.324e-02    1.059e-02    3.309e-03    6.637e-04    -3.049e-04  /
#      CHEB/ -4.507e-01   -2.015e-01   -8.718e-02   -1.309e-02   1.774e-03   /
#      CHEB/ 1.786e-03    9.692e-04    2.433e-04    -1.250e-01   -4.482e-02  /
#      CHEB/ -5.172e-02   -1.505e-02   -2.112e-03   -5.124e-04   3.314e-04   /
#      CHEB/ 2.879e-04    1.437e-02    3.905e-02    -1.792e-02   -9.365e-03  /
#      CHEB/ -2.007e-03   -1.168e-03   -2.780e-04   1.054e-04    4.512e-02   /
#      CHEB/ 6.539e-02    3.126e-03    -3.853e-03   -9.370e-04   -6.676e-04  /
#      CHEB/ -4.740e-04   -4.249e-05   3.001e-02    5.325e-02    1.317e-02   /
#      CHEB/ -8.473e-04   -4.099e-04   -7.695e-05   -2.226e-04   -8.765e-05  /
#  aQOOH[O](+M) <=> aQOOHg(+M)                         1.000e+00 0.000     0.000
#      TCHEB/ 180.000   1500.000 /
#      PCHEB/ 0.010     98.692   /
#      CHEB/ 10 8/
#      CHEB/ -4.095e+00   2.058e+00    -1.033e-01   1.913e-02    6.718e-03   /
#      CHEB/ -9.744e-04   -6.512e-04   3.219e-04    -3.313e+00   7.076e-01   /
#      CHEB/ 8.134e-03    9.183e-03    -2.136e-03   4.135e-03    5.692e-04   /
#      CHEB/ -1.208e-03   -2.795e+00   3.337e-01    6.641e-02    2.547e-02   /
#      CHEB/ -9.595e-03   -6.839e-03   1.242e-03    1.201e-03    -1.862e+00  /
#      CHEB/ -3.205e-02   2.074e-02    3.277e-02    1.829e-02    -1.488e-03  /
#      CHEB/ -3.718e-03   -1.267e-04   -9.811e-01   -1.770e-01   -4.127e-02  /
#      CHEB/ -1.022e-02   1.100e-02    8.970e-03    5.878e-04    -1.695e-03  /