units(length='cm', time='s', quantity='mol', act_energy='kcal/mol')

ideal_gas(name='gas',
          elements="H D T C Ci O Oi N Ne Ar He Si S F Cl Br I X",
          species="""OH             bQOOH[O]       acetone
                     H2O            balkoxyketone  ibutenol
                     trisub_epoxy   bQOOHg         CH2O
                     galkene        O2             bR
                     bQOOHa         bRO2           disub_epoxy
                     HO2""",
          reactions='all',
          initial_state=state(temperature=300.0, pressure=OneAtm))

#-------------------------------------------------------------------------------
# Element data
#-------------------------------------------------------------------------------

element(symbol='Ci', atomic_mass=13.003)
element(symbol='D', atomic_mass=2.014)
element(symbol='Oi', atomic_mass=18.0)
element(symbol='T', atomic_mass=3.016)
element(symbol='X', atomic_mass=195.083)
#-------------------------------------------------------------------------------
# Species data
#-------------------------------------------------------------------------------

species(name='OH',
        atoms='H:1 O:1',
        thermo=(NASA([10.00, 984.14],
                     [ 3.49686242E+00,  1.83973160E-04, -9.97634499E-07,
                       1.56942783E-09, -6.10128175E-13,  3.41673934E+03,
                       1.48093120E+00]),
                NASA([984.14, 3000.00],
                     [ 3.45221464E+00, -2.95124034E-04,  7.39418622E-07,
                      -2.89309866E-10,  3.53041498E-14,  3.45751599E+03,
                       1.85813897E+00])))

species(name='bQOOH[O]',
        atoms='C:4 H:9 O:3',
        thermo=(NASA([10.00, 338.69],
                     [ 3.60915854E+00,  3.39069566E-02,  2.22227265E-04,
                      -8.23527342E-07,  8.56246333E-10, -2.35120740E+04,
                       1.23284605E+01]),
                NASA([338.69, 3000.00],
                     [ 5.03198881E+00,  5.46235886E-02, -3.56935806E-05,
                       1.12371751E-08, -1.35390171E-12, -2.38236567E+04,
                       3.82760723E+00])))

species(name='acetone',
        atoms='C:3 H:6 O:1',
        thermo=(NASA([10.00, 414.35],
                     [ 3.73496166E+00,  3.05743218E-02, -1.26253585E-04,
                       3.66080978E-07, -3.31430437E-10, -2.70011761E+04,
                       8.24936012E+00]),
                NASA([414.35, 3000.00],
                     [ 1.70010292E-01,  3.28431468E-02, -1.80960132E-05,
                       4.82960690E-09, -5.02388538E-13, -2.64297930E+04,
                       2.56372653E+01])))

species(name='H2O',
        atoms='H:2 O:1',
        thermo=(NASA([10.00, 773.84],
                     [ 4.00473541E+00, -2.39729134E-04,  8.11862955E-07,
                       1.47891862E-09, -1.19783539E-12, -3.03533807E+04,
                      -9.96254147E-02]),
                NASA([773.84, 3000.00],
                     [ 3.52133374E+00,  1.05377009E-03,  6.40722099E-07,
                      -3.86240235E-10,  5.49243294E-14, -3.02424794E+04,
                       2.34173094E+00])))

species(name='balkoxyketone',
        atoms='C:4 H:7 O:2',
        thermo=(NASA([10.00, 269.93],
                     [ 3.81931151E+00,  1.68519318E-02,  2.42742224E-04,
                      -9.64821161E-07,  1.18509335E-09, -2.17824361E+04,
                       1.20521854E+01]),
                NASA([269.93, 3000.00],
                     [ 3.57555944E+00,  4.28868089E-02, -2.65390705E-05,
                       7.99659117E-09, -9.32983470E-13, -2.18509643E+04,
                       1.13957990E+01])))

species(name='ibutenol',
        atoms='C:4 H:8 O:1',
        thermo=(NASA([10.00, 135.97],
                     [ 3.95714996E+00,  5.72646980E-03,  4.63611760E-04,
                      -3.04137514E-06,  6.85019471E-09, -2.48387598E+04,
                       8.21931848E+00]),
                NASA([135.97, 3000.00],
                     [ 3.32467612E+00,  3.69033556E-02, -1.89960416E-05,
                       4.73417677E-09, -4.59705291E-13, -2.48331811E+04,
                       9.58133237E+00])))

species(name='trisub_epoxy',
        atoms='C:4 H:8 O:2',
        thermo=(NASA([10.00, 209.19],
                     [ 3.75295042E+00,  2.37546930E-02,  1.26610110E-04,
                      -4.78364365E-07,  5.79468168E-10, -3.95195381E+04,
                       1.12739684E+01]),
                NASA([209.19, 3000.00],
                     [ 2.64185254E+00,  4.50006531E-02, -2.57361066E-05,
                       7.15266054E-09, -7.72980731E-13, -3.94730525E+04,
                       1.48960343E+01])))

species(name='bQOOHg',
        atoms='C:4 H:9 O:3',
        thermo=(NASA([10.00, 441.09],
                     [ 3.56595280E+00,  3.36073467E-02,  2.03462772E-04,
                      -5.98977617E-07,  4.83271168E-10, -2.49099901E+04,
                       1.33537891E+01]),
                NASA([441.09, 3000.00],
                     [ 6.09031192E+00,  5.80517622E-02, -4.06392697E-05,
                       1.32574026E-08, -1.62501077E-12, -2.55931756E+04,
                      -1.97849715E+00])))

species(name='CH2O',
        atoms='C:1 H:2 O:1',
        thermo=(NASA([10.00, 601.31],
                     [ 4.03190845E+00, -1.93233367E-03,  8.89743345E-06,
                       2.98105926E-09, -7.90813886E-12, -1.42276270E+04,
                       3.47574660E+00]),
                NASA([601.31, 3000.00],
                     [ 1.40134195E+00,  9.48858016E-03, -4.43088317E-06,
                       9.48452194E-10, -7.43790219E-14, -1.38013869E+04,
                       1.57423780E+01])))

species(name='galkene',
        atoms='C:4 H:8 O:1',
        thermo=(NASA([10.00, 383.47],
                     [ 3.84035604E+00,  1.20378740E-02,  1.87486319E-04,
                      -5.44759148E-07,  4.80711015E-10, -1.94014190E+04,
                       1.02570291E+01]),
                NASA([383.47, 3000.00],
                     [ 4.00413385E+00,  3.79025144E-02, -2.15435710E-05,
                       6.15213311E-09, -6.97446345E-13, -1.96167083E+04,
                       6.98052628E+00])))

species(name='O2',
        atoms='O:2',
        thermo=(NASA([10.00, 605.96],
                     [ 3.50743498E+00, -4.43860349E-04,  1.45938058E-06,
                       1.61509333E-09, -2.32050052E-12, -9.24756224E+02,
                       4.72183634E+00]),
                NASA([605.96, 3000.00],
                     [ 2.87462882E+00,  2.17840991E-03, -1.18262921E-06,
                       2.86910493E-10, -2.53297146E-14, -8.19517838E+02,
                       7.69331810E+00])))

species(name='bR',
        atoms='C:4 H:9 O:1',
        thermo=(NASA([10.00, 483.43],
                     [ 3.38164846E+00,  5.97142637E-02, -1.58320095E-04,
                       3.04908893E-07, -2.13091806E-10, -1.17806152E+04,
                       1.09226843E+01]),
                NASA([483.43, 3000.00],
                     [ 2.33428824E+00,  4.22094427E-02, -2.28029290E-05,
                       6.04614564E-09, -6.30240159E-13, -1.13735332E+04,
                       1.83772893E+01])))

species(name='bQOOHa',
        atoms='C:4 H:9 O:3',
        thermo=(NASA([10.00, 390.53],
                     [ 3.54969236E+00,  3.76592474E-02,  1.76622653E-04,
                      -5.98063750E-07,  5.45069236E-10, -2.76321453E+04,
                       1.31518761E+01]),
                NASA([390.53, 3000.00],
                     [ 5.33564209E+00,  5.64935715E-02, -3.83214298E-05,
                       1.22990604E-08, -1.49549987E-12, -2.80547552E+04,
                       2.59015836E+00])))

species(name='bRO2',
        atoms='C:4 H:9 O:3',
        thermo=(NASA([10.00, 461.39],
                     [ 3.53964713E+00,  3.88723795E-02,  9.57420148E-05,
                      -2.80380499E-07,  2.09647462E-10, -3.15940207E+04,
                       1.18803618E+01]),
                NASA([461.39, 3000.00],
                     [ 3.47201723E+00,  6.00510247E-02, -4.00567321E-05,
                       1.25663813E-08, -1.49496682E-12, -3.18069675E+04,
                       9.77903975E+00])))

species(name='disub_epoxy',
        atoms='C:4 H:8 O:2',
        thermo=(NASA([10.00, 549.41],
                     [ 3.89863211E+00,  5.97532637E-03,  1.66685676E-04,
                      -3.10743768E-07,  1.78330192E-10, -3.85965868E+04,
                       1.13847308E+01]),
                NASA([549.41, 3000.00],
                     [-6.40277648E-01,  6.05960003E-02, -4.13427220E-05,
                       1.31555461E-08, -1.57685017E-12, -3.84234699E+04,
                       2.76005436E+01])))

species(name='HO2',
        atoms='H:1 O:2',
        thermo=(NASA([10.00, 891.11],
                     [ 4.02887004E+00, -1.75769289E-03,  1.08726004E-05,
                      -1.13812972E-08,  3.90113097E-12,  4.95165001E+02,
                       4.69302008E+00]),
                NASA([891.11, 3000.00],
                     [ 3.06571044E+00,  4.28505005E-03, -2.19325920E-06,
                       5.58882699E-10, -5.61246669E-14,  5.98557610E+02,
                       8.84564156E+00])))

#-------------------------------------------------------------------------------
# Reaction data
#-------------------------------------------------------------------------------

# Reaction 1
chebyshev_reaction('bQOOHg (+ M) <=> bRO2 (+ M)',
                   Tmin=180.0, Tmax=1500.0,
                   Pmin=(0.01, 'atm'), Pmax=(98.692, 'atm'),
                   coeffs=[[-1.33500e-01,  7.27200e-01, -3.37900e-02, -3.06800e-03,  2.48800e-03, -4.06800e-07, -8.55500e-05, -1.66800e-05],
                           [ 2.51600e+00,  1.20200e+00, -2.51300e-02, -6.46300e-03,  3.43000e-03,  1.92900e-04, -1.10200e-04, -4.34800e-05],
                           [-2.16100e+00,  6.23300e-01,  5.35000e-02, -2.66000e-03, -1.18600e-04,  4.55500e-04,  3.47400e-05, -5.01800e-05],
                           [-1.57900e+00,  7.59200e-02,  8.53100e-02,  8.36500e-03, -2.46100e-03,  2.00300e-04,  1.68400e-04, -2.09600e-05],
                           [-1.02300e+00, -2.07400e-01,  4.84300e-02,  1.78000e-02, -1.13300e-03, -4.21100e-04,  1.47700e-04,  3.53300e-05],
                           [-6.23400e-01, -2.35900e-01, -1.06900e-02,  1.54800e-02,  2.27000e-03, -5.32800e-04, -3.73800e-05,  5.85300e-05],
                           [-1.89100e-01, -1.47100e-01, -4.21400e-02,  3.53600e-03,  3.77200e-03,  1.51200e-04, -1.60900e-04,  9.96900e-06],
                           [-7.65300e-02, -5.56600e-02, -3.71000e-02, -6.92300e-03,  1.79800e-03,  8.05800e-04, -4.69300e-05, -5.27800e-05],
                           [-6.67900e-02, -2.48400e-03, -1.62400e-02, -8.92400e-03, -1.32500e-03,  5.77600e-04,  1.62400e-04, -4.11700e-05],
                           [ 8.83400e-02,  1.72200e-02,  2.10000e-04, -4.51000e-03, -2.65800e-03, -2.97400e-04,  1.83600e-04,  3.97200e-05]])

# Reaction 2
chebyshev_reaction('bQOOHa (+ M) <=> bRO2 (+ M)',
                   Tmin=180.0, Tmax=1500.0,
                   Pmin=(0.01, 'atm'), Pmax=(98.692, 'atm'),
                   coeffs=[[-7.29200e-02,  7.10600e-01, -4.27400e-02,  9.70600e-04,  1.11900e-03, -2.76100e-05,  2.16400e-05, -1.17900e-05],
                           [ 3.40900e+00,  1.15400e+00, -3.21400e-02, -2.24300e-03,  1.57400e-03,  1.46100e-04,  3.01800e-05, -2.41700e-05],
                           [-2.00700e+00,  5.65800e-01,  6.02100e-02, -3.57000e-03, -6.53500e-04,  4.60000e-04,  3.33400e-05, -2.05400e-05],
                           [-1.59000e+00,  4.97700e-02,  8.86600e-02,  7.18000e-03, -2.27300e-03,  1.59000e-04,  1.02100e-04, -3.31100e-06],
                           [-1.00700e+00, -1.90100e-01,  4.26700e-02,  1.78000e-02, -4.75100e-04, -5.56200e-04,  7.97600e-05,  3.21700e-05],
                           [-5.39300e-01, -2.06000e-01, -1.55500e-02,  1.49400e-02,  2.95300e-03, -5.58300e-04, -1.07200e-04,  3.92300e-05],
                           [-2.41000e-01, -1.33900e-01, -4.03000e-02,  2.67000e-03,  3.84100e-03,  2.93300e-04, -1.95200e-04, -1.54300e-05],
                           [-8.39900e-02, -6.00800e-02, -3.34800e-02, -6.67800e-03,  1.43900e-03,  8.61800e-04, -1.38000e-05, -6.00100e-05],
                           [-3.08400e-02, -1.09300e-02, -1.64300e-02, -7.85000e-03, -1.39000e-03,  4.54100e-04,  1.99000e-04, -1.66200e-05],
                           [ 1.80600e-02,  1.30800e-02, -3.16700e-03, -4.14900e-03, -2.25700e-03, -3.69700e-04,  1.64600e-04,  6.67900e-05]])

# Reaction 3
chebyshev_reaction('bQOOH[O] (+ M) <=> bRO2 (+ M)',
                   Tmin=180.0, Tmax=1500.0,
                   Pmin=(0.01, 'atm'), Pmax=(98.692, 'atm'),
                   coeffs=[[ 4.86100e+00,  8.69200e-01, -1.07700e-01,  1.13700e-02,  1.61300e-03, -8.96500e-05,  6.13000e-05, -4.04800e-05],
                           [-1.15200e+00,  1.05700e+00, -1.56200e-02, -1.50300e-02,  5.36100e-03,  9.86800e-04, -3.87700e-04, -7.58300e-06],
                           [-2.83200e+00,  1.99000e-01,  8.31000e-02,  4.84900e-03, -3.56600e-03,  6.11600e-04,  3.02300e-04, -8.79600e-05],
                           [-1.66000e+00, -1.73800e-01,  1.94400e-02,  2.55000e-02,  3.19100e-04, -1.99000e-03,  1.46100e-04,  1.94600e-04],
                           [-8.64300e-01, -1.85100e-01, -3.89200e-02,  1.16900e-02,  5.99800e-03, -7.32700e-04, -6.25700e-04,  1.04000e-04],
                           [-4.07300e-01, -8.99100e-02, -3.70300e-02, -5.90800e-03,  2.78100e-03,  1.28900e-03, -1.91500e-04, -1.66800e-04],
                           [-1.75100e-01, -2.21000e-02, -9.81300e-03, -7.06800e-03, -2.34100e-03,  5.49400e-04,  4.99600e-04, -2.18400e-05],
                           [-7.48800e-02, -4.26100e-03,  5.83500e-03,  1.16200e-03, -2.45900e-03, -1.09500e-03,  2.42900e-04,  2.20500e-04],
                           [-3.59500e-02, -1.21500e-02,  2.76200e-03,  5.77500e-03,  8.25400e-04, -1.11100e-03, -4.04100e-04,  1.19900e-04],
                           [-1.81200e-02, -1.85800e-02, -7.81300e-03,  2.97100e-03,  2.83100e-03,  1.94400e-04, -4.76100e-04, -1.42100e-04]])

# Reaction 4
chebyshev_reaction('O2 + bR (+ M) <=> bRO2 (+ M)',
                   Tmin=180.0, Tmax=1500.0,
                   Pmin=(0.01, 'atm'), Pmax=(98.692, 'atm'),
                   coeffs=[[ 1.19200e+01,  9.91800e-01, -2.42900e-01,  5.89700e-02, -1.24100e-02,  1.96100e-03, -1.11200e-04, -8.53200e-05],
                           [-2.08500e+00,  1.27700e+00, -1.30600e-01, -2.26900e-02,  1.88000e-02, -5.75000e-03,  7.62200e-04,  1.21200e-04],
                           [-1.36900e+00,  5.96700e-01,  6.50800e-02, -4.43400e-02,  9.44500e-03,  4.24900e-04, -9.23700e-04,  2.38700e-04],
                           [-8.93700e-01,  1.68400e-01,  1.02900e-01, -1.84200e-02, -2.13400e-03,  1.89200e-03, -3.16800e-04, -9.35900e-05],
                           [-5.52100e-01, -2.59700e-02,  6.77900e-02,  3.89500e-03, -3.72200e-03,  3.35200e-04,  2.08600e-04, -6.86800e-05],
                           [-3.24200e-01, -8.89000e-02,  2.81100e-02,  9.48000e-03, -7.98600e-04, -4.99700e-04,  6.26300e-05,  4.85400e-05],
                           [-1.79000e-01, -8.94300e-02,  2.05200e-03,  7.06900e-03,  9.53900e-04, -2.61700e-04, -1.14100e-04,  4.03500e-05],
                           [-8.88300e-02, -6.80600e-02, -1.00100e-02,  3.05000e-03,  1.16000e-03,  5.72500e-05, -9.14500e-05,  1.23600e-06],
                           [-3.56700e-02, -4.21100e-02, -1.34700e-02,  2.22400e-05,  7.45900e-04,  1.47800e-04, -2.17600e-05, -1.61800e-06],
                           [-6.92400e-03, -1.91600e-02, -1.22200e-02, -1.89100e-03,  3.41800e-04,  1.23300e-04,  7.08700e-06,  8.29000e-06]])
#  bRO2(+M) <=> bQOOHg(+M)                             1.000e+00 0.000     0.000
#      TCHEB/ 180.000   1500.000 /
#      PCHEB/ 0.010     98.692   /
#      CHEB/ 10 8/
#      CHEB/ -8.212e+00   7.272e-01    -3.379e-02   -3.068e-03   2.488e-03   /
#      CHEB/ -4.068e-07   -8.555e-05   -1.668e-05   1.001e+01    1.202e+00   /
#      CHEB/ -2.513e-02   -6.463e-03   3.430e-03    1.929e-04    -1.102e-04  /
#      CHEB/ -4.348e-05   -2.015e+00   6.233e-01    5.350e-02    -2.660e-03  /
#      CHEB/ -1.186e-04   4.555e-04    3.474e-05    -5.018e-05   -1.542e+00  /
#      CHEB/ 7.592e-02    8.531e-02    8.365e-03    -2.461e-03   2.003e-04   /
#      CHEB/ 1.684e-04    -2.096e-05   -1.017e+00   -2.074e-01   4.843e-02   /
#      CHEB/ 1.780e-02    -1.133e-03   -4.211e-04   1.477e-04    3.533e-05   /
#      CHEB/ -6.235e-01   -2.359e-01   -1.069e-02   1.548e-02    2.270e-03   /
#      CHEB/ -5.328e-04   -3.738e-05   5.853e-05    -1.896e-01   -1.471e-01  /
#      CHEB/ -4.214e-02   3.536e-03    3.772e-03    1.512e-04    -1.609e-04  /
#      CHEB/ 9.969e-06    -7.698e-02   -5.566e-02   -3.710e-02   -6.923e-03  /
#      CHEB/ 1.798e-03    8.058e-04    -4.693e-05   -5.278e-05   -6.712e-02  /
#      CHEB/ -2.484e-03   -1.624e-02   -8.924e-03   -1.325e-03   5.776e-04   /
#      CHEB/ 1.624e-04    -4.117e-05   8.815e-02    1.722e-02    2.100e-04   /
#      CHEB/ -4.510e-03   -2.658e-03   -2.974e-04   1.836e-04    3.972e-05   /

# Reaction 5
chebyshev_reaction('bQOOHa (+ M) <=> bQOOHg (+ M)',
                   Tmin=180.0, Tmax=1500.0,
                   Pmin=(0.01, 'atm'), Pmax=(98.692, 'atm'),
                   coeffs=[[-9.22600e+00, -2.22500e-01, -1.56700e-01,  1.26300e-04,  3.97900e-03, -9.00800e-05, -1.15700e-04, -1.83800e-05],
                           [ 7.27800e+00,  2.52700e+00, -5.14900e-02, -3.10700e-02,  6.85200e-03,  4.98700e-04, -1.83600e-04, -5.77000e-05],
                           [-2.40000e+00,  8.09600e-01,  2.09100e-01, -7.99700e-03, -8.36400e-03,  1.76200e-03,  2.93400e-04, -1.49800e-04],
                           [-2.05200e+00, -1.81600e-01,  1.61700e-01,  4.02300e-02, -6.70700e-03, -1.72000e-03,  5.14000e-04,  8.89700e-05],
                           [-1.16400e+00, -3.94900e-01,  6.75400e-03,  4.06100e-02,  6.86500e-03, -2.09400e-03, -4.98000e-04,  1.90600e-04],
                           [-5.60700e-01, -2.88700e-01, -7.24600e-02,  1.00100e-02,  9.69700e-03,  1.38600e-03, -6.18700e-04, -1.45400e-04],
                           [-2.01000e-01, -1.39400e-01, -6.79500e-02, -1.38400e-02,  3.29200e-03,  2.59800e-03,  3.37100e-04, -2.13500e-04],
                           [-4.23800e-02, -2.06700e-02, -3.63600e-02, -1.75800e-02, -3.11500e-03,  1.05200e-03,  7.20900e-04,  5.97300e-05],
                           [ 1.05900e-02,  3.87800e-02, -4.55700e-03, -1.02900e-02, -5.30600e-03, -7.36000e-04,  3.09000e-04,  1.93300e-04],
                           [ 4.52000e-02,  4.30000e-02,  1.66500e-02, -1.70700e-03, -3.69500e-03, -1.66300e-03, -1.75900e-04,  1.19400e-04]])

# Reaction 6
chebyshev_reaction('bQOOH[O] (+ M) <=> bQOOHg (+ M)',
                   Tmin=180.0, Tmax=1500.0,
                   Pmin=(0.01, 'atm'), Pmax=(98.692, 'atm'),
                   coeffs=[[-3.97300e+00,  1.06300e-01, -2.43000e-01, -2.06000e-03,  9.07900e-03,  6.51700e-04, -6.01600e-04, -1.36700e-04],
                           [ 1.80000e+00,  2.25500e+00,  7.15400e-02, -6.38200e-02,  4.17400e-03,  5.14000e-03, -4.65300e-04, -5.25800e-04],
                           [-2.73300e+00,  3.42700e-01,  1.95600e-01,  4.27100e-02, -1.69900e-02, -3.05800e-03,  2.15200e-03,  2.83100e-04],
                           [-2.04100e+00, -3.56000e-01,  4.55000e-02,  5.87400e-02,  6.29000e-03, -5.48000e-03, -1.01000e-03,  7.40700e-04],
                           [-1.09600e+00, -3.45100e-01, -5.66800e-02,  1.02600e-02,  1.43400e-02,  2.25700e-03, -1.88700e-03, -4.08200e-04],
                           [-4.81800e-01, -1.61900e-01, -6.62600e-02, -1.46900e-02,  1.80500e-03,  4.40500e-03,  7.12500e-04, -6.25200e-04],
                           [-1.40700e-01, -5.27500e-02, -2.02200e-02, -1.52000e-02, -6.37000e-03,  6.74600e-04,  1.54000e-03,  2.11200e-04],
                           [-3.13500e-02,  1.42800e-02,  1.91200e-03, -1.61700e-03, -5.22300e-03, -2.37100e-03,  3.71100e-04,  5.09700e-04],
                           [-9.60100e-03,  2.77500e-02,  5.22200e-03,  6.73300e-03, -5.58500e-04, -2.03900e-03, -7.40500e-04,  1.24700e-04],
                           [ 1.57700e-02, -3.42200e-03,  9.62200e-03,  2.83100e-03,  2.85900e-03, -2.04900e-04, -8.32700e-04, -2.26000e-04]])

# Reaction 7
chebyshev_reaction('O2 + bR (+ M) <=> bQOOHg (+ M)',
                   Tmin=180.0, Tmax=1500.0,
                   Pmin=(0.01, 'atm'), Pmax=(98.692, 'atm'),
                   coeffs=[[ 6.23500e+00,  4.57800e-01, -5.45100e-01,  9.86600e-02, -4.61300e-03, -5.25100e-03,  1.87500e-03, -4.36800e-05],
                           [-1.69300e+00,  2.30500e+00,  3.65200e-02, -1.16500e-01,  2.60900e-02,  3.00200e-03, -3.29400e-03,  4.38000e-04],
                           [-1.60500e+00,  6.68600e-01,  2.46100e-01, -3.28000e-02, -1.16100e-02,  2.61100e-03,  1.28600e-03, -6.63000e-04],
                           [-1.14000e+00, -6.79500e-02,  1.47800e-01,  2.59500e-02, -4.84100e-03, -3.51500e-03,  6.27300e-04,  4.62700e-04],
                           [-6.47600e-01, -2.32700e-01,  2.32100e-02,  2.51800e-02,  6.29700e-03, -1.55400e-03, -1.09300e-03,  2.79300e-04],
                           [-3.08600e-01, -1.75800e-01, -3.34300e-02,  4.28400e-03,  6.72700e-03,  1.62800e-03, -6.55900e-04, -2.44800e-04],
                           [-1.12900e-01, -7.73300e-02, -3.69800e-02, -9.23500e-03,  1.80700e-03,  2.10100e-03,  2.72700e-04, -2.03900e-04],
                           [-2.35500e-02, -5.97300e-03, -1.86000e-02, -1.15300e-02, -2.03000e-03,  8.46200e-04,  5.30500e-04,  3.48400e-05],
                           [ 9.67600e-03,  2.21400e-02,  1.72700e-03, -7.00300e-03, -3.56500e-03, -2.54500e-04,  2.71500e-04,  1.12500e-04],
                           [ 1.07500e-02,  2.52400e-02,  1.10700e-02, -5.92900e-04, -2.66600e-03, -1.01700e-03, -6.76000e-06,  9.39500e-05]])
#  bRO2(+M) <=> bQOOHa(+M)                             1.000e+00 0.000     0.000
#      TCHEB/ 180.000   1500.000 /
#      PCHEB/ 0.010     98.692   /
#      CHEB/ 10 8/
#      CHEB/ -4.578e+00   7.106e-01    -4.274e-02   9.706e-04    1.119e-03   /
#      CHEB/ -2.761e-05   2.164e-05    -1.179e-05   7.860e+00    1.154e+00   /
#      CHEB/ -3.214e-02   -2.243e-03   1.574e-03    1.461e-04    3.018e-05   /
#      CHEB/ -2.417e-05   -1.952e+00   5.658e-01    6.021e-02    -3.570e-03  /
#      CHEB/ -6.535e-04   4.600e-04    3.334e-05    -2.054e-05   -1.589e+00  /
#      CHEB/ 4.977e-02    8.866e-02    7.180e-03    -2.273e-03   1.590e-04   /
#      CHEB/ 1.021e-04    -3.311e-06   -1.012e+00   -1.901e-01   4.267e-02   /
#      CHEB/ 1.780e-02    -4.751e-04   -5.562e-04   7.976e-05    3.217e-05   /
#      CHEB/ -5.421e-01   -2.060e-01   -1.555e-02   1.494e-02    2.953e-03   /
#      CHEB/ -5.583e-04   -1.072e-04   3.923e-05    -2.423e-01   -1.339e-01  /
#      CHEB/ -4.030e-02   2.670e-03    3.841e-03    2.933e-04    -1.952e-04  /
#      CHEB/ -1.543e-05   -8.471e-02   -6.008e-02   -3.348e-02   -6.678e-03  /
#      CHEB/ 1.439e-03    8.618e-04    -1.380e-05   -6.001e-05   -3.119e-02  /
#      CHEB/ -1.093e-02   -1.643e-02   -7.850e-03   -1.390e-03   4.541e-04   /
#      CHEB/ 1.990e-04    -1.662e-05   1.794e-02    1.308e-02    -3.167e-03  /
#      CHEB/ -4.149e-03   -2.257e-03   -3.697e-04   1.646e-04    6.679e-05   /
#  bQOOHg(+M) <=> bQOOHa(+M)                           1.000e+00 0.000     0.000
#      TCHEB/ 180.000   1500.000 /
#      PCHEB/ 0.010     98.692   /
#      CHEB/ 10 8/
#      CHEB/ -5.653e+00   -2.225e-01   -1.567e-01   1.263e-04    3.979e-03   /
#      CHEB/ -9.008e-05   -1.157e-04   -1.838e-05   4.241e+00    2.527e+00   /
#      CHEB/ -5.149e-02   -3.107e-02   6.852e-03    4.987e-04    -1.836e-04  /
#      CHEB/ -5.770e-05   -2.491e+00   8.096e-01    2.091e-01    -7.997e-03  /
#      CHEB/ -8.364e-03   1.762e-03    2.934e-04    -1.498e-04   -2.088e+00  /
#      CHEB/ -1.816e-01   1.617e-01    4.023e-02    -6.707e-03   -1.720e-03  /
#      CHEB/ 5.140e-04    8.897e-05    -1.175e+00   -3.949e-01   6.754e-03   /
#      CHEB/ 4.061e-02    6.865e-03    -2.094e-03   -4.980e-04   1.906e-04   /
#      CHEB/ -5.633e-01   -2.887e-01   -7.246e-02   1.001e-02    9.697e-03   /
#      CHEB/ 1.386e-03    -6.187e-04   -1.454e-04   -2.017e-01   -1.394e-01  /
#      CHEB/ -6.795e-02   -1.384e-02   3.292e-03    2.598e-03    3.371e-04   /
#      CHEB/ -2.135e-04   -4.265e-02   -2.067e-02   -3.636e-02   -1.758e-02  /
#      CHEB/ -3.115e-03   1.052e-03    7.209e-04    5.973e-05    1.056e-02   /
#      CHEB/ 3.878e-02    -4.557e-03   -1.029e-02   -5.306e-03   -7.360e-04  /
#      CHEB/ 3.090e-04    1.933e-04    4.526e-02    4.300e-02    1.665e-02   /
#      CHEB/ -1.707e-03   -3.695e-03   -1.663e-03   -1.759e-04   1.194e-04   /

# Reaction 8
chebyshev_reaction('bQOOH[O] (+ M) <=> bQOOHa (+ M)',
                   Tmin=180.0, Tmax=1500.0,
                   Pmin=(0.01, 'atm'), Pmax=(98.692, 'atm'),
                   coeffs=[[-1.13400e+00, -1.05900e-02, -2.41200e-01,  6.62800e-03,  7.52400e-03, -5.65600e-04, -2.43500e-04,  3.47400e-05],
                           [ 6.57800e-01,  2.23600e+00,  2.40800e-02, -4.78800e-02,  2.30700e-03,  4.57600e-03, -4.65300e-04, -4.27600e-04],
                           [-2.97100e+00,  3.69600e-01,  2.09900e-01,  2.26800e-02, -1.46100e-02, -1.12700e-03,  1.69000e-03,  3.38900e-05],
                           [-2.02500e+00, -3.18900e-01,  5.85600e-02,  5.39400e-02,  3.79500e-03, -5.08500e-03, -5.65200e-04,  6.63300e-04],
                           [-1.07000e+00, -3.29700e-01, -5.74500e-02,  1.87700e-02,  1.30400e-02,  6.54300e-04, -1.60600e-03, -2.00400e-04],
                           [-4.76400e-01, -1.68800e-01, -6.45100e-02, -1.19200e-02,  3.98700e-03,  3.65700e-03,  2.97700e-04, -5.22900e-04],
                           [-1.68400e-01, -4.24200e-02, -2.76600e-02, -1.43100e-02, -4.73600e-03,  1.00400e-03,  1.29100e-03,  1.07100e-04],
                           [-4.24600e-02,  1.02900e-02,  5.41500e-04, -3.26600e-03, -4.84500e-03, -1.86700e-03,  3.98500e-04,  4.53100e-04],
                           [-3.47800e-03,  1.36100e-02,  7.15700e-03,  4.62700e-03, -6.13800e-04, -1.90100e-03, -6.43800e-04,  1.56700e-04],
                           [ 1.37000e-03,  3.18200e-03,  8.64500e-04,  4.51000e-03,  2.27500e-03, -3.17200e-04, -7.09600e-04, -2.09200e-04]])

# Reaction 9
chebyshev_reaction('O2 + bR (+ M) <=> bQOOHa (+ M)',
                   Tmin=180.0, Tmax=1500.0,
                   Pmin=(0.01, 'atm'), Pmax=(98.692, 'atm'),
                   coeffs=[[ 7.97600e+00,  7.51500e-01, -5.81300e-01,  4.88200e-02,  2.01000e-02, -3.29000e-03, -4.47500e-03,  2.06000e-03],
                           [-2.11200e+00,  1.94500e+00,  1.47900e-01, -7.79800e-02, -1.70900e-02,  8.08000e-03,  5.29200e-03, -3.83400e-03],
                           [-1.65800e+00,  5.91100e-01,  2.03000e-01, -1.84000e-03, -2.51200e-03, -9.14000e-03,  1.86600e-03,  2.11600e-03],
                           [-1.14000e+00, -1.45800e-02,  1.13700e-01,  1.54800e-02,  9.28100e-03, -2.62500e-03, -3.20400e-03,  8.81900e-04],
                           [-6.63900e-01, -1.71700e-01,  2.69900e-02,  7.96800e-03,  7.40100e-03,  3.16600e-03, -1.52500e-03, -9.04200e-04],
                           [-3.38400e-01, -1.49900e-01, -1.28000e-02, -2.56300e-03,  2.02100e-03,  3.05000e-03,  7.16900e-04, -6.04000e-04],
                           [-1.41400e-01, -8.24000e-02, -1.92400e-02, -7.35500e-03, -1.59900e-03,  1.06600e-03,  9.86000e-04,  1.34000e-04],
                           [-3.99000e-02, -2.96300e-02, -1.02800e-02, -6.27000e-03, -3.01900e-03, -4.38000e-04,  4.57000e-04,  3.32600e-04],
                           [ 1.88800e-03,  1.17300e-03, -4.83400e-04, -2.92400e-03, -2.55400e-03, -9.49900e-04, -1.09000e-04,  2.01800e-04],
                           [ 1.38900e-02,  8.61200e-03,  4.78100e-03,  1.17500e-03, -1.44700e-03, -1.05000e-03, -2.48500e-04,  5.33100e-05]])
#  bRO2(+M) <=> bQOOH[O](+M)                           1.000e+00 0.000     0.000
#      TCHEB/ 180.000   1500.000 /
#      PCHEB/ 0.010     98.692   /
#      CHEB/ 10 8/
#      CHEB/ -5.621e+00   8.692e-01    -1.077e-01   1.137e-02    1.613e-03   /
#      CHEB/ -8.965e-05   6.130e-05    -4.048e-05   7.550e+00    1.057e+00   /
#      CHEB/ -1.562e-02   -1.503e-02   5.361e-03    9.868e-04    -3.877e-04  /
#      CHEB/ -7.583e-06   -2.838e+00   1.990e-01    8.310e-02    4.849e-03   /
#      CHEB/ -3.566e-03   6.116e-04    3.023e-04    -8.796e-05   -1.681e+00  /
#      CHEB/ -1.738e-01   1.944e-02    2.550e-02    3.191e-04    -1.990e-03  /
#      CHEB/ 1.461e-04    1.946e-04    -8.750e-01   -1.851e-01   -3.892e-02  /
#      CHEB/ 1.169e-02    5.998e-03    -7.327e-04   -6.257e-04   1.040e-04   /
#      CHEB/ -4.112e-01   -8.991e-02   -3.703e-02   -5.908e-03   2.781e-03   /
#      CHEB/ 1.289e-03    -1.915e-04   -1.668e-04   -1.767e-01   -2.210e-02  /
#      CHEB/ -9.813e-03   -7.068e-03   -2.341e-03   5.494e-04    4.996e-04   /
#      CHEB/ -2.184e-05   -7.551e-02   -4.261e-03   5.835e-03    1.162e-03   /
#      CHEB/ -2.459e-03   -1.095e-03   2.429e-04    2.205e-04    -3.613e-02  /
#      CHEB/ -1.215e-02   2.762e-03    5.775e-03    8.254e-04    -1.111e-03  /
#      CHEB/ -4.041e-04   1.199e-04    -1.812e-02   -1.858e-02   -7.813e-03  /
#      CHEB/ 2.971e-03    2.831e-03    1.944e-04    -4.761e-04   -1.421e-04  /
#  bQOOHg(+M) <=> bQOOH[O](+M)                         1.000e+00 0.000     0.000
#      TCHEB/ 180.000   1500.000 /
#      PCHEB/ 0.010     98.692   /
#      CHEB/ 10 8/
#      CHEB/ -6.375e+00   1.063e-01    -2.430e-01   -2.060e-03   9.079e-03   /
#      CHEB/ 6.517e-04    -6.016e-04   -1.367e-04   3.013e+00    2.255e+00   /
#      CHEB/ 7.154e-02    -6.382e-02   4.174e-03    5.140e-03    -4.653e-04  /
#      CHEB/ -5.258e-04   -2.885e+00   3.427e-01    1.956e-01    4.271e-02   /
#      CHEB/ -1.699e-02   -3.058e-03   2.152e-03    2.831e-04    -2.099e+00  /