units(length='cm', time='s', quantity='mol', act_energy='kcal/mol')

ideal_gas(name='gas',
          elements="H D T C Ci O Oi N Ne Ar He Si S F Cl Br I X",
          species="""propene3ol       OH               disub_c4ether
                     H2O              disub_epoxy      gQOOHa
                     propene1ol       gQOOHb           ipropylOOH
                     galdoxy          galkene          CH2O
                     O2               gRO2             gQOOHg
                     gR               galdol           monosub_c4ether
                     HO2              gQOOH[O]""",
          reactions='all',
          initial_state=state(temperature=300.0, pressure=OneAtm))

#-------------------------------------------------------------------------------
# Element data
#-------------------------------------------------------------------------------

element(symbol='Ci', atomic_mass=13.003)
element(symbol='D', atomic_mass=2.014)
element(symbol='Oi', atomic_mass=18.0)
element(symbol='T', atomic_mass=3.016)
element(symbol='X', atomic_mass=195.083)
#-------------------------------------------------------------------------------
# Species data
#-------------------------------------------------------------------------------

species(name='propene3ol',
        atoms='C:3 H:6 O:1',
        thermo=(NASA([10.00, 444.81],
                     [ 3.92769709E+00,  4.89977303E-03,  1.13094874E-04,
                      -2.59008187E-07,  1.86205760E-10, -1.67568318E+04,
                       9.90805416E+00]),
                NASA([444.81, 3000.00],
                     [ 2.61720343E+00,  3.01777872E-02, -1.76511625E-05,
                       5.14864061E-09, -5.91153761E-13, -1.67737322E+04,
                       1.36683107E+01])))

species(name='OH',
        atoms='H:1 O:1',
        thermo=(NASA([10.00, 984.14],
                     [ 3.49686242E+00,  1.83973160E-04, -9.97634499E-07,
                       1.56942783E-09, -6.10128175E-13,  3.41673934E+03,
                       1.48093120E+00]),
                NASA([984.14, 3000.00],
                     [ 3.45221464E+00, -2.95124034E-04,  7.39418622E-07,
                      -2.89309866E-10,  3.53041498E-14,  3.45751599E+03,
                       1.85813897E+00])))

species(name='disub_c4ether',
        atoms='C:4 H:8 O:2',
        thermo=(NASA([10.00, 413.50],
                     [ 3.78241323E+00,  1.89501763E-02,  8.65302396E-05,
                      -1.80580575E-07,  1.13656264E-10, -4.08726830E+04,
                       1.09982450E+01]),
                NASA([413.50, 3000.00],
                     [ 4.29420885E-01,  5.13851903E-02, -3.11292293E-05,
                       9.11498284E-09, -1.03192718E-12, -4.05953886E+04,
                       2.42134976E+01])))

species(name='H2O',
        atoms='H:2 O:1',
        thermo=(NASA([10.00, 773.84],
                     [ 4.00473541E+00, -2.39729134E-04,  8.11862955E-07,
                       1.47891862E-09, -1.19783539E-12, -3.03533807E+04,
                      -9.96254147E-02]),
                NASA([773.84, 3000.00],
                     [ 3.52133374E+00,  1.05377009E-03,  6.40722099E-07,
                      -3.86240235E-10,  5.49243294E-14, -3.02424794E+04,
                       2.34173094E+00])))

species(name='disub_epoxy',
        atoms='C:4 H:8 O:2',
        thermo=(NASA([10.00, 549.41],
                     [ 3.89863211E+00,  5.97532637E-03,  1.66685676E-04,
                      -3.10743768E-07,  1.78330192E-10, -3.81296818E+04,
                       1.13847308E+01]),
                NASA([549.41, 3000.00],
                     [-6.40277648E-01,  6.05960003E-02, -4.13427220E-05,
                       1.31555461E-08, -1.57685017E-12, -3.79565650E+04,
                       2.76005436E+01])))

species(name='gQOOHa',
        atoms='C:4 H:9 O:3',
        thermo=(NASA([10.00, 160.74],
                     [ 3.80808147E+00,  2.31043884E-02,  5.26945984E-04,
                      -3.11500696E-06,  6.03881958E-09, -2.35668163E+04,
                       1.17645316E+01]),
                NASA([160.74, 3000.00],
                     [ 2.90630300E+00,  6.50241173E-02, -4.60073244E-05,
                       1.51330930E-08, -1.87074267E-12, -2.35629917E+04,
                       1.36838819E+01])))

species(name='propene1ol',
        atoms='C:3 H:6 O:1',
        thermo=(NASA([10.00, 459.42],
                     [ 3.91245344E+00,  5.85800161E-03,  1.15412006E-04,
                      -2.68014417E-07,  1.91800131E-10, -1.87023559E+04,
                       8.14807684E+00]),
                NASA([459.42, 3000.00],
                     [ 3.14049093E+00,  2.95550898E-02, -1.73843684E-05,
                       5.11506211E-09, -5.92966137E-13, -1.88105784E+04,
                       9.32215170E+00])))

species(name='gQOOHb',
        atoms='C:4 H:9 O:3',
        thermo=(NASA([10.00, 1018.67],
                     [ 3.99028351E+00,  4.29665712E-02,  2.28338778E-05,
                      -5.67914439E-08,  2.29383258E-11, -2.55010029E+04,
                       1.20326731E+01]),
                NASA([1018.67, 3000.00],
                     [ 1.38304153E+01,  3.88527019E-02, -2.19473905E-05,
                       5.78719895E-09, -5.85097740E-13, -2.92970877E+04,
                      -4.44147388E+01])))

species(name='ipropylOOH',
        atoms='C:3 H:7 O:2',
        thermo=(NASA([10.00, 405.01],
                     [ 3.30075623E+00,  7.58672756E-02, -3.35754269E-04,
                       8.05972164E-07, -6.68864582E-10, -5.94179488E+02,
                       1.43372849E+01]),
                NASA([405.01, 3000.00],
                     [ 2.51742509E+00,  3.72760950E-02, -2.12450220E-05,
                       5.83593926E-09, -6.22110649E-13, -1.50771882E+02,
                       2.20991392E+01])))

species(name='galdoxy',
        atoms='C:4 H:7 O:2',
        thermo=(NASA([10.00, 209.62],
                     [ 3.82641108E+00,  1.84758886E-02,  3.43073800E-04,
                      -1.82817005E-06,  2.98516720E-09, -1.90594931E+04,
                       1.17972706E+01]),
                NASA([209.62, 3000.00],
                     [ 4.22049016E+00,  4.03370149E-02, -2.36129482E-05,
                       6.72979114E-09, -7.47862493E-13, -1.91405629E+04,
                       8.97211724E+00])))

species(name='galkene',
        atoms='C:4 H:8 O:1',
        thermo=(NASA([10.00, 383.47],
                     [ 3.84035604E+00,  1.20378740E-02,  1.87486319E-04,
                      -5.44759148E-07,  4.80711015E-10, -2.11292708E+04,
                       1.02570291E+01]),
                NASA([383.47, 3000.00],
                     [ 4.00413385E+00,  3.79025144E-02, -2.15435710E-05,
                       6.15213311E-09, -6.97446345E-13, -2.13445601E+04,
                       6.98052628E+00])))

species(name='CH2O',
        atoms='C:1 H:2 O:1',
        thermo=(NASA([10.00, 601.31],
                     [ 4.03190845E+00, -1.93233367E-03,  8.89743345E-06,
                       2.98105926E-09, -7.90813886E-12, -1.42276270E+04,
                       3.47574660E+00]),
                NASA([601.31, 3000.00],
                     [ 1.40134195E+00,  9.48858016E-03, -4.43088317E-06,
                       9.48452194E-10, -7.43790219E-14, -1.38013869E+04,
                       1.57423780E+01])))

species(name='O2',
        atoms='O:2',
        thermo=(NASA([10.00, 605.96],
                     [ 3.50743498E+00, -4.43860349E-04,  1.45938058E-06,
                       1.61509333E-09, -2.32050052E-12, -9.24756224E+02,
                       4.72183634E+00]),
                NASA([605.96, 3000.00],
                     [ 2.87462882E+00,  2.17840991E-03, -1.18262921E-06,
                       2.86910493E-10, -2.53297146E-14, -8.19517838E+02,
                       7.69331810E+00])))

species(name='gRO2',
        atoms='C:4 H:9 O:3',
        thermo=(NASA([10.00, 177.33],
                     [ 3.70632176E+00,  3.49733664E-02,  4.64036392E-04,
                      -3.18637835E-06,  6.38178607E-09, -2.80442890E+04,
                       1.24459269E+01]),
                NASA([177.33, 3000.00],
                     [ 4.82062697E+00,  5.17179689E-02, -3.18386818E-05,
                       9.52247045E-09, -1.10180288E-12, -2.81496595E+04,
                       7.14082953E+00])))

species(name='gQOOHg',
        atoms='C:4 H:9 O:3',
        thermo=(NASA([10.00, 475.03],
                     [ 3.42273720E+00,  4.98344215E-02,  6.47820920E-05,
                      -2.49842966E-07,  1.98636537E-10, -2.13936646E+04,
                       1.41578583E+01]),
                NASA([475.03, 3000.00],
                     [ 5.94049074E+00,  5.53778585E-02, -3.71708255E-05,
                       1.17540477E-08, -1.40812095E-12, -2.19346188E+04,
                       7.09201218E-01])))

species(name='gR',
        atoms='C:4 H:9 O:1',
        thermo=(NASA([10.00, 638.24],
                     [ 3.37074633E+00,  5.17529751E-02, -6.54872940E-05,
                       6.88084237E-08, -3.21569794E-11, -1.31402216E+04,
                       1.14339669E+01]),
                NASA([638.24, 3000.00],
                     [ 3.99410860E+00,  4.06314915E-02, -2.23932510E-05,
                       6.08356263E-09, -6.49884708E-13, -1.30728469E+04,
                       9.85769960E+00])))

species(name='galdol',
        atoms='C:4 H:8 O:2',
        thermo=(NASA([10.00, 506.68],
                     [ 3.85380874E+00,  9.21272695E-03,  1.86712348E-04,
                      -3.96417049E-07,  2.55528268E-10, -4.63274825E+04,
                       1.24312743E+01]),
                NASA([506.68, 3000.00],
                     [ 1.49710213E+00,  5.65979142E-02, -3.87709084E-05,
                       1.23682052E-08, -1.48287964E-12, -4.64580919E+04,
                       1.85531759E+01])))

species(name='monosub_c4ether',
        atoms='C:4 H:8 O:2',
        thermo=(NASA([10.00, 380.36],
                     [ 3.47743996E+00,  6.08051311E-02, -2.78518945E-04,
                       8.23182713E-07, -7.87158031E-10, -3.00113775E+04,
                       1.06415154E+01]),
                NASA([380.36, 3000.00],
                     [-1.09346901E+00,  5.35985968E-02, -3.21081420E-05,
                       9.20818293E-09, -1.01830294E-12, -2.92638174E+04,
                       3.35312368E+01])))

species(name='HO2',
        atoms='H:1 O:2',
        thermo=(NASA([10.00, 891.11],
                     [ 4.02887004E+00, -1.75769289E-03,  1.08726004E-05,
                      -1.13812972E-08,  3.90113097E-12,  4.95165001E+02,
                       4.69302008E+00]),
                NASA([891.11, 3000.00],
                     [ 3.06571044E+00,  4.28505005E-03, -2.19325920E-06,
                       5.58882699E-10, -5.61246669E-14,  5.98557610E+02,
                       8.84564156E+00])))

species(name='gQOOH[O]',
        atoms='C:4 H:9 O:3',
        thermo=(NASA([10.00, 535.23],
                     [ 3.83107445E+00,  1.02302002E-02,  2.29377261E-04,
                      -4.59095575E-07,  2.77765018E-10, -1.81854342E+04,
                       1.41034859E+01]),
                NASA([535.23, 3000.00],
                     [-4.19283096E-01,  7.69784620E-02, -5.57279000E-05,
                       1.81378295E-08, -2.18295635E-12, -1.82315476E+04,
                       2.72711816E+01])))

#-------------------------------------------------------------------------------
# Reaction data
#-------------------------------------------------------------------------------

# Reaction 1
chebyshev_reaction('gQOOH[O] (+ M) <=> gRO2 (+ M)',
                   Tmin=180.0, Tmax=1500.0,
                   Pmin=(0.01, 'atm'), Pmax=(98.692, 'atm'),
                   coeffs=[[ 5.52800e+00,  1.93100e+00, -9.94400e-02, -2.74700e-02, -4.74500e-03,  3.65700e-04,  4.61000e-05,  1.32800e-04],
                           [-6.10800e+00,  3.18400e-01,  3.91900e-02,  8.71900e-03, -2.78100e-03,  4.45400e-04,  8.34700e-04,  2.60900e-04],
                           [-3.60700e+00,  9.36300e-03, -6.81000e-02, -1.95500e-02, -1.89100e-03,  1.44000e-03,  6.95300e-04,  2.23800e-04],
                           [-1.87600e+00,  1.17500e-02, -2.43900e-02, -1.09900e-02, -2.58400e-03, -5.06600e-04,  1.76800e-04,  1.36600e-04],
                           [-9.52200e-01,  4.38500e-03,  3.83900e-03, -5.25000e-04,  6.74800e-04,  1.83400e-04,  1.47800e-04, -3.16000e-05],
                           [-4.65400e-01, -1.99200e-02,  4.95300e-03,  2.13300e-03,  9.97900e-04,  2.72600e-05,  6.95100e-05,  5.31800e-05],
                           [-1.93500e-01, -2.07300e-02,  4.58700e-04,  1.15100e-03,  2.23700e-04, -1.61300e-04, -1.15800e-04, -2.71200e-05],
                           [-6.33700e-02, -4.25600e-03,  1.15800e-03,  1.59800e-03, -1.26400e-04, -3.67100e-04, -1.95800e-04, -2.72200e-05],
                           [-7.28900e-03,  6.56800e-03,  1.87300e-04,  8.14700e-04,  3.54000e-05, -7.00900e-05, -9.83500e-05, -3.65200e-05],
                           [ 2.77400e-03,  1.09300e-02,  8.35400e-04,  2.63600e-04, -8.90400e-05, -6.56000e-05, -3.01300e-05,  4.10900e-07]])

# Reaction 2
chebyshev_reaction('gQOOHa (+ M) <=> gRO2 (+ M)',
                   Tmin=180.0, Tmax=1500.0,
                   Pmin=(0.01, 'atm'), Pmax=(98.692, 'atm'),
                   coeffs=[[ 4.11500e+00,  7.66900e-01, -9.16200e-02,  1.54100e-02,  9.00600e-04,  5.23300e-04, -1.87600e-04, -6.59300e-05],
                           [-3.48300e+00,  8.85300e-01, -3.16000e-02, -3.91800e-03,  7.73500e-03,  7.71100e-05, -3.30000e-04, -2.51300e-05],
                           [-3.67600e+00, -3.59200e-02,  4.90900e-02,  2.33900e-03,  6.41400e-04,  9.03400e-04, -1.55300e-04, -1.52500e-05],
                           [-1.92700e+00, -3.57500e-01, -2.90700e-02,  1.60200e-02,  4.89900e-04, -7.31100e-04,  1.75500e-04,  6.86600e-05],
                           [-8.03000e-01, -1.81700e-01, -8.31300e-02, -1.69200e-03,  4.02200e-03, -6.11400e-04, -1.95800e-04,  1.21900e-04],
                           [-2.83700e-01,  3.19200e-02, -3.89200e-02, -1.86100e-02, -1.60500e-04,  7.44500e-04, -1.24600e-04, -1.34000e-05],
                           [-1.20000e-01,  7.76000e-02,  1.97600e-02, -8.22200e-03, -5.12100e-03, -1.58700e-04,  2.91800e-04,  4.42200e-06],
                           [-5.47400e-02,  2.27300e-02,  2.62200e-02,  8.97000e-03, -1.88900e-03, -1.64100e-03, -4.04300e-05,  1.12500e-04],
                           [-3.43800e-02, -1.48500e-02, -1.46300e-03,  9.62200e-03,  3.84200e-03, -6.16200e-04, -6.19300e-04, -4.28500e-05],
                           [ 5.13700e-03, -7.85500e-03, -1.50100e-02, -2.20800e-03,  3.70000e-03,  1.35700e-03, -3.25000e-04, -2.46400e-04]])

# Reaction 3
chebyshev_reaction('gQOOHg (+ M) <=> gRO2 (+ M)',
                   Tmin=180.0, Tmax=1500.0,
                   Pmin=(0.01, 'atm'), Pmax=(98.692, 'atm'),
                   coeffs=[[ 2.80100e+00,  5.99400e-01,  3.16900e-02,  1.12500e-02, -2.51400e-03,  5.65900e-04, -2.05800e-04, -6.31100e-05],
                           [-3.45100e+00,  9.12000e-01,  8.25700e-02,  1.70900e-02, -2.21300e-03,  4.15000e-04, -2.41200e-04, -6.86100e-05],
                           [-3.64600e+00,  2.82600e-01,  9.61600e-02,  1.22800e-02,  1.84300e-03, -3.36500e-04, -6.07500e-05,  7.95500e-05],
                           [-2.42400e+00, -2.43300e-01,  5.08500e-02,  1.57500e-02,  3.81600e-03, -1.93500e-04, -9.74700e-06,  1.39300e-04],
                           [-1.20100e+00, -3.98300e-01, -3.60800e-02,  1.71500e-02,  5.11800e-03,  4.43500e-04, -2.49200e-05,  9.48400e-06],
                           [-3.73100e-01, -2.43700e-01, -9.56000e-02,  4.84900e-03,  6.60700e-03,  1.19500e-03, -1.08500e-04, -1.98600e-04],
                           [-3.80500e-02, -1.48700e-02, -8.50100e-02, -1.50600e-02,  5.60500e-03,  2.04100e-03, -1.84200e-04, -2.99100e-04],
                           [ 3.20700e-02,  1.08100e-01, -2.59800e-02, -2.51000e-02,  3.51000e-04,  2.42100e-03,  3.21900e-05, -2.04300e-04],
                           [ 4.97200e-03,  9.86700e-02,  2.66400e-02, -1.68200e-02, -5.96700e-03,  1.47700e-03,  6.33300e-04,  4.63000e-05],
                           [-1.49200e-02,  3.05700e-02,  3.81700e-02,  6.05100e-04, -7.95900e-03, -5.49400e-04,  1.16500e-03,  3.18100e-04]])

# Reaction 4
chebyshev_reaction('gQOOHb (+ M) <=> gRO2 (+ M)',
                   Tmin=180.0, Tmax=1500.0,
                   Pmin=(0.01, 'atm'), Pmax=(98.692, 'atm'),
                   coeffs=[[-1.96200e+00,  5.38400e-01,  1.13500e-02, -3.13900e-03, -1.35800e-04,  3.29600e-04, -5.97200e-05, -3.68600e-06],
                           [ 3.39900e+00,  8.44400e-01,  3.54400e-02, -5.29100e-03, -4.27500e-05,  4.57600e-04, -7.04300e-05, -8.85100e-06],
                           [-2.37600e+00,  3.46700e-01,  4.48300e-02, -2.03600e-04,  4.12500e-05,  1.41000e-04, -1.67100e-06, -3.64800e-06],
                           [-1.53500e+00, -5.69600e-02,  2.21300e-02,  5.32200e-03,  4.21500e-04, -1.04200e-04,  3.37300e-05,  1.67700e-06],
                           [-8.67300e-01, -1.94200e-01, -1.40000e-02,  4.35700e-03,  1.15500e-03, -1.12100e-04,  1.73100e-05,  3.36200e-06],
                           [-4.18200e-01, -1.39200e-01, -3.05100e-02, -1.71300e-03,  1.01700e-03,  1.00400e-04, -7.65100e-07, -9.49200e-07],
                           [-1.18500e-01, -4.20300e-02, -2.18300e-02, -5.52200e-03, -1.93600e-04,  1.83000e-04,  2.22200e-05, -2.49700e-06],
                           [-3.08100e-02,  1.44500e-02, -5.29900e-03, -3.98900e-03, -1.13100e-03, -1.52200e-05,  3.35500e-05,  5.72700e-06],
                           [ 3.00900e-02,  2.69300e-02,  4.63400e-03, -3.18200e-04, -9.02900e-04, -2.24000e-04, -7.93800e-06,  9.65700e-06],
                           [-9.56300e-03,  2.02300e-02,  6.26000e-03,  1.82800e-03, -7.38800e-05, -1.88800e-04, -5.33100e-05, -8.63400e-07]])

# Reaction 5
chebyshev_reaction('O2 + gR (+ M) <=> gRO2 (+ M)',
                   Tmin=180.0, Tmax=1500.0,
                   Pmin=(0.01, 'atm'), Pmax=(98.692, 'atm'),
                   coeffs=[[ 1.31400e+01,  9.63900e-01, -9.63200e-02,  9.81400e-03, -1.93800e-03,  8.24700e-04, -2.82600e-04,  6.33200e-05],
                           [-3.86900e+00,  9.51700e-01,  3.67000e-02, -9.53400e-03, -1.02900e-03,  1.60400e-04,  8.66700e-05, -2.64700e-05],
                           [-2.18300e+00,  2.36200e-01,  5.09800e-02,  4.08700e-03, -3.14900e-04, -3.73500e-04,  3.40500e-05, -3.57400e-06],
                           [-1.16500e+00, -1.46400e-02,  1.42300e-02,  2.67600e-03,  1.33600e-03, -1.56300e-04,  1.97200e-05, -1.57900e-05],
                           [-5.84400e-01, -6.07900e-02, -2.52700e-03, -7.04100e-04,  7.42600e-04, -1.20000e-05,  4.25600e-05, -1.65800e-06],
                           [-2.63900e-01, -5.03400e-02, -5.87100e-03, -1.25800e-03,  1.56700e-04, -3.31100e-05,  1.46100e-05,  3.48600e-06],
                           [-9.72200e-02, -2.75000e-02, -5.61700e-03, -8.59700e-04, -6.70600e-05, -3.89600e-06, -5.83900e-06, -2.90300e-07],
                           [-2.01300e-02, -6.69800e-03, -3.74800e-03, -5.40400e-04, -1.62300e-04,  1.55900e-05, -3.95300e-06, -6.40400e-07],
                           [ 6.81300e-03,  6.67300e-03, -1.25800e-03, -2.56500e-04, -1.75800e-04,  4.28200e-06, -1.97300e-06,  5.35000e-07],
                           [ 9.51300e-03,  1.11700e-02,  8.88800e-04,  9.49000e-06, -1.08700e-04, -1.13800e-05, -2.47800e-06, -6.30600e-08]])
#  gRO2(+M) <=> gQOOH[O](+M)                           1.000e+00 0.000     0.000
#      TCHEB/ 180.000   1500.000 /
#      PCHEB/ 0.010     98.692   /
#      CHEB/ 10 8/
#      CHEB/ -8.278e+00   1.931e+00    -9.944e-02   -2.747e-02   -4.745e-03  /
#      CHEB/ 3.657e-04    4.610e-05    1.328e-04    4.095e+00    3.184e-01   /
#      CHEB/ 3.919e-02    8.719e-03    -2.781e-03   4.454e-04    8.347e-04   /
#      CHEB/ 2.609e-04    -3.434e+00   9.363e-03    -6.810e-02   -1.955e-02  /
#      CHEB/ -1.891e-03   1.440e-03    6.953e-04    2.238e-04    -1.751e+00  /
#      CHEB/ 1.175e-02    -2.439e-02   -1.099e-02   -2.584e-03   -5.066e-04  /
#      CHEB/ 1.768e-04    1.366e-04    -8.985e-01   4.385e-03    3.839e-03   /
#      CHEB/ -5.250e-04   6.748e-04    1.834e-04    1.478e-04    -3.160e-05  /
#      CHEB/ -4.463e-01   -1.992e-02   4.953e-03    2.133e-03    9.979e-04   /
#      CHEB/ 2.726e-05    6.951e-05    5.318e-05    -1.873e-01   -2.073e-02  /
#      CHEB/ 4.587e-04    1.151e-03    2.237e-04    -1.613e-04   -1.158e-04  /
#      CHEB/ -2.712e-05   -6.145e-02   -4.256e-03   1.158e-03    1.598e-03   /
#      CHEB/ -1.264e-04   -3.671e-04   -1.958e-04   -2.722e-05   -6.827e-03  /
#      CHEB/ 6.568e-03    1.873e-04    8.147e-04    3.540e-05    -7.009e-05  /
#      CHEB/ -9.835e-05   -3.652e-05   2.745e-03    1.093e-02    8.354e-04   /
#      CHEB/ 2.636e-04    -8.904e-05   -6.560e-05   -3.013e-05   4.109e-07   /

# Reaction 6
chebyshev_reaction('gQOOHa (+ M) <=> gQOOH[O] (+ M)',
                   Tmin=180.0, Tmax=1500.0,
                   Pmin=(0.01, 'atm'), Pmax=(98.692, 'atm'),
                   coeffs=[[-7.36700e+00,  1.23600e+00, -2.79000e-01,  3.23400e-02, -9.74600e-03, -5.97200e-03,  1.22600e-03,  6.44900e-05],
                           [-2.45200e+00,  9.76800e-01,  1.12700e-01, -5.01100e-02,  2.25000e-02,  6.79400e-03, -3.26600e-03,  2.06000e-04],
                           [-4.73900e+00, -2.15300e-01, -3.59000e-02, -2.25400e-02, -5.10400e-03,  6.64100e-03,  1.76000e-03, -4.60600e-04],
                           [-2.27600e+00, -3.13700e-01, -7.91100e-02,  6.15900e-03, -4.36600e-03, -1.82500e-03,  1.41100e-03,  3.13000e-04],
                           [-9.21600e-01, -6.79100e-02, -8.01900e-02, -1.69100e-03,  6.31800e-03, -1.39600e-03, -3.98300e-04,  2.13600e-04],
                           [-3.54700e-01,  9.10200e-02, -1.54400e-02, -1.61200e-02,  1.28400e-03,  1.04100e-03, -4.98700e-04, -5.73600e-05],
                           [-1.42200e-01,  8.75000e-02,  3.22100e-02, -4.72800e-03, -4.53900e-03, -2.81500e-04,  8.49600e-05, -8.22100e-05],
                           [-7.77800e-02,  1.47100e-02,  3.31000e-02,  1.15200e-02, -2.19700e-03, -1.73800e-03, -1.85800e-04,  6.74500e-05],
                           [-3.19900e-02, -2.72300e-02, -2.65400e-03,  1.07600e-02,  3.97600e-03, -6.65000e-04, -6.08900e-04, -7.24900e-05],
                           [-8.35400e-03, -1.45300e-02, -1.72900e-02, -2.18400e-03,  3.36600e-03,  1.34100e-03, -2.76700e-04, -2.37600e-04]])

# Reaction 7
chebyshev_reaction('gQOOHg (+ M) <=> gQOOH[O] (+ M)',
                   Tmin=180.0, Tmax=1500.0,
                   Pmin=(0.01, 'atm'), Pmax=(98.692, 'atm'),
                   coeffs=[[-7.79700e+00,  7.94800e-01,  4.37000e-02,  3.34100e-03, -1.66600e-02, -4.71200e-03, -8.54300e-04,  3.86800e-04],
                           [-3.07500e+00,  1.06800e+00,  7.65100e-02,  3.49100e-02,  8.62300e-03,  2.70400e-03, -4.34900e-04, -4.66400e-04],
                           [-4.61000e+00,  9.38100e-02, -5.42900e-02, -2.33300e-02,  5.64800e-03,  4.66500e-03,  1.69700e-03,  2.86500e-04],
                           [-2.70600e+00, -2.20600e-01,  1.44900e-02, -3.51400e-03, -2.28500e-03, -1.01100e-04,  9.11400e-04,  3.72700e-04],
                           [-1.23000e+00, -3.01600e-01, -9.22800e-03,  2.47500e-02,  3.72400e-03, -6.25500e-04, -3.23200e-04, -4.92800e-05],
                           [-4.14500e-01, -1.78700e-01, -6.87300e-02,  1.60900e-02,  7.87700e-03,  4.90900e-04, -4.93700e-04, -2.51400e-04],
                           [-5.78800e-02, -1.32400e-03, -7.63200e-02, -9.30300e-03,  7.28400e-03,  1.92400e-03, -4.59100e-04, -3.81100e-04],
                           [-1.45800e-03,  1.08500e-01, -2.34900e-02, -2.37100e-02,  8.11300e-04,  2.51500e-03,  1.16800e-05, -2.45300e-04],
                           [-2.77400e-03,  9.02600e-02,  2.49800e-02, -1.67700e-02, -5.79300e-03,  1.61500e-03,  6.63700e-04,  4.33000e-05],
                           [-2.46500e-02,  2.64800e-02,  3.71600e-02,  9.34300e-05, -8.21600e-03, -5.70700e-04,  1.18500e-03,  3.31700e-04]])

# Reaction 8
chebyshev_reaction('gQOOHb (+ M) <=> gQOOH[O] (+ M)',
                   Tmin=180.0, Tmax=1500.0,
                   Pmin=(0.01, 'atm'), Pmax=(98.692, 'atm'),
                   coeffs=[[-1.23800e+01,  7.81400e-01, -5.65800e-03, -1.29700e-02, -1.08300e-02, -4.13600e-03, -7.49400e-04,  2.96600e-04],
                           [ 3.20300e+00,  1.14700e+00,  1.53300e-02,  1.04000e-02,  1.02400e-02,  2.66000e-03, -4.24400e-04, -2.94200e-04],
                           [-3.14500e+00,  2.09000e-01, -1.12100e-01, -4.08100e-02,  2.65900e-03,  5.48700e-03,  1.73500e-03,  2.95400e-04],
                           [-1.89800e+00, -3.09100e-02, -2.42300e-02, -1.75600e-02, -5.51000e-03,  3.77800e-04,  1.00900e-03,  2.37300e-04],
                           [-9.77800e-01, -7.59000e-02,  6.65200e-03,  1.02200e-02,  5.62300e-04, -1.22300e-03, -2.85200e-04, -7.09900e-05],
                           [-4.51700e-01, -4.66800e-02, -5.25900e-03,  8.38000e-03,  2.86900e-03, -7.21300e-04, -4.68200e-04, -4.92700e-05],
                           [-1.58200e-01, -1.87400e-02, -1.37200e-02, -8.20900e-04,  1.55500e-03,  1.12700e-04, -2.86300e-04, -7.54300e-05],
                           [-5.12600e-02,  1.12600e-02, -3.34900e-03, -3.31700e-03, -9.28000e-04,  1.35400e-04,  5.70600e-05, -2.14400e-05],
                           [ 7.36100e-04,  1.34400e-02,  2.56300e-03, -6.20400e-04, -9.52500e-04, -1.02600e-04,  5.65500e-05,  1.61400e-05],
                           [ 1.06100e-03,  1.61300e-02,  5.93800e-03,  1.20600e-03, -6.28800e-04, -3.12700e-04, -1.99400e-05,  2.83700e-05]])

# Reaction 9
chebyshev_reaction('O2 + gR (+ M) <=> gQOOH[O] (+ M)',
                   Tmin=180.0, Tmax=1500.0,
                   Pmin=(0.01, 'atm'), Pmax=(98.692, 'atm'),
                   coeffs=[[ 3.62100e+00,  1.57900e+00,  1.85300e-01,  5.25200e-02, -2.98500e-02, -2.27400e-02, -7.89400e-03, -2.53900e-04],
                           [-4.69800e+00,  3.30700e-01, -2.30800e-01, -5.05300e-02,  3.17400e-02,  2.40400e-02,  8.08000e-03,  2.71400e-04],
                           [-2.69100e+00,  2.25900e-03, -6.66800e-02, -3.48500e-02, -2.82300e-03,  3.07600e-03,  1.90100e-03,  3.29500e-04],
                           [-1.32100e+00,  3.22200e-02,  2.24000e-02, -1.07600e-02, -9.66700e-03, -3.69900e-03, -2.24900e-04,  4.07700e-04],
                           [-5.96400e-01, -4.27200e-03,  3.16300e-02,  1.29500e-02,  2.16300e-03, -1.11400e-03, -8.66700e-04, -3.22200e-04],
                           [-2.87700e-01, -7.78500e-03,  1.62600e-02,  8.30000e-03,  1.97800e-03,  7.62300e-05, -2.14600e-04, -7.98100e-05],
                           [-1.02200e-01, -2.44300e-02, -2.09500e-03,  3.97400e-03,  1.65700e-03,  1.89900e-04, -1.64200e-04, -2.72600e-05],
                           [-4.38500e-02,  1.41000e-03, -2.60600e-03, -5.07300e-04, -2.50500e-04,  1.24400e-04,  1.54800e-05, -2.66800e-05],
                           [-6.98100e-04,  1.28000e-03, -3.53200e-03, -3.60300e-04,  1.33000e-05,  1.50400e-05, -4.32500e-06,  4.06000e-06],
                           [-4.03500e-04,  1.01800e-02, -3.70500e-04, -1.11700e-03, -4.11100e-04, -1.53600e-05,  3.27900e-05, -1.73200e-07]])
#  gRO2(+M) <=> gQOOHa(+M)                             1.000e+00 0.000     0.000
#      TCHEB/ 180.000   1500.000 /
#      PCHEB/ 0.010     98.692   /
#      CHEB/ 10 8/
#      CHEB/ -2.243e+00   7.669e-01    -9.162e-02   1.541e-02    9.006e-04   /
#      CHEB/ 5.233e-04    -1.876e-04   -6.593e-05   1.490e+00    8.853e-01   /
#      CHEB/ -3.160e-02   -3.918e-03   7.735e-03    7.711e-05    -3.300e-04  /
#      CHEB/ -2.513e-05   -3.514e+00   -3.592e-02   4.909e-02    2.339e-03   /
#      CHEB/ 6.414e-04    9.034e-04    -1.553e-04   -1.525e-05   -1.853e+00  /
#      CHEB/ -3.575e-01   -2.907e-02   1.602e-02    4.899e-04    -7.311e-04  /
#      CHEB/ 1.755e-04    6.866e-05    -7.745e-01   -1.817e-01   -8.313e-02  /
#      CHEB/ -1.692e-03   4.022e-03    -6.114e-04   -1.958e-04   1.219e-04   /
#      CHEB/ -2.739e-01   3.192e-02    -3.892e-02   -1.861e-02   -1.605e-04  /
#      CHEB/ 7.445e-04    -1.246e-04   -1.340e-05   -1.170e-01   7.760e-02   /
#      CHEB/ 1.976e-02    -8.222e-03   -5.121e-03   -1.587e-04   2.918e-04   /
#      CHEB/ 4.422e-06    -5.411e-02   2.273e-02    2.622e-02    8.970e-03   /
#      CHEB/ -1.889e-03   -1.641e-03   -4.043e-05   1.125e-04    -3.439e-02  /
#      CHEB/ -1.485e-02   -1.463e-03   9.622e-03    3.842e-03    -6.162e-04  /
#      CHEB/ -6.193e-04   -4.285e-05   5.020e-03    -7.855e-03   -1.501e-02  /
#      CHEB/ -2.208e-03   3.700e-03    1.357e-03    -3.250e-04   -2.464e-04  /
#  gQOOH[O](+M) <=> gQOOHa(+M)                         1.000e+00 0.000     0.000
#      TCHEB/ 180.000   1500.000 /
#      PCHEB/ 0.010     98.692   /
#      CHEB/ 10 8/
#      CHEB/ 8.069e-02    1.236e+00    -2.790e-01   3.234e-02    -9.746e-03  /
#      CHEB/ -5.972e-03   1.226e-03    6.449e-05    -7.681e+00   9.768e-01   /
#      CHEB/ 1.127e-01    -5.011e-02   2.250e-02    6.794e-03    -3.266e-03  /
#      CHEB/ 2.060e-04    -4.750e+00   -2.153e-01   -3.590e-02   -2.254e-02  /
#      CHEB/ -5.104e-03   6.641e-03    1.760e-03    -4.606e-04   -2.326e+00  /
#      CHEB/ -3.137e-01   -7.911e-02   6.159e-03    -4.366e-03   -1.825e-03  /
#      CHEB/ 1.411e-03    3.130e-04    -9.467e-01   -6.791e-02   -8.019e-02  /
#      CHEB/ -1.691e-03   6.318e-03    -1.396e-03   -3.983e-04   2.136e-04   /
#      CHEB/ -3.640e-01   9.102e-02    -1.544e-02   -1.612e-02   1.284e-03   /
#      CHEB/ 1.041e-03    -4.987e-04   -5.736e-05   -1.455e-01   8.750e-02   /
#      CHEB/ 3.221e-02    -4.728e-03   -4.539e-03   -2.815e-04   8.496e-05   /
#      CHEB/ -8.221e-05   -7.906e-02   1.471e-02    3.310e-02    1.152e-02   /
#      CHEB/ -2.197e-03   -1.738e-03   -1.858e-04   6.745e-05    -3.245e-02  /
#      CHEB/ -2.723e-02   -2.654e-03   1.076e-02    3.976e-03    -6.650e-04  /